18
-0.00474418 (energy)
C	2.6919116	0.8788192	-1.1803424
O	2.9569946	1.5142943	-2.1969944
H	2.8024474	-0.2199610	-1.1810949
C	2.1248144	1.4478148	0.0992861
Cl	2.6797471	3.1318783	0.3097657
H	2.5345910	0.8766532	0.9385060
C	0.5942470	1.3904490	0.0820256
H	0.1898663	1.9451552	-0.7732515
H	0.2078419	1.8694768	0.9895598
N	0.0622184	0.0197604	0.0444392
H	0.0630985	-0.3224866	-0.9190335
H	-0.9275825	0.0479293	0.3015794
O	0.0271355	-0.2470944	3.6021892
H	0.6507976	-0.5618667	2.9258582
C	-0.0222641	-1.2353158	4.6147460
H	-0.7168486	-0.9117482	5.3935115
H	0.9726590	-1.3646565	5.0477587
H	-0.3709627	-2.1787829	4.1876514
