18
-0.00233409 (energy)
C	1.5395505	-1.4818580	0.8639198
O	2.3426869	-1.4460968	-0.0641814
H	1.8283572	-1.9625609	1.8152620
C	0.1091430	-0.9973894	0.8188763
Cl	-0.0331950	0.3595034	-0.3330367
H	-0.1477700	-0.5980688	1.8052693
C	-0.8326576	-2.1367510	0.4175136
H	-0.5570289	-2.5481365	-0.5610120
H	-1.8521686	-1.7433215	0.3269295
N	-0.8677830	-3.2360107	1.3940630
H	-0.0768889	-3.8636644	1.2329705
H	-1.6909512	-3.8131697	1.2045844
O	4.6151339	-0.9383985	3.4593176
H	4.6650502	-1.5202181	2.6818513
C	5.0762313	0.3374556	3.0544985
H	5.0330420	1.0181802	3.9079434
H	4.4380355	0.7193945	2.2539176
H	6.1088737	0.2589210	2.7057686
