18
-0.00148507 (energy)
C	1.9737543	0.6581722	-1.5031698
O	2.4653705	1.7738900	-1.3576835
H	1.7714602	0.2811835	-2.5212529
C	1.5153165	-0.2609800	-0.3951092
Cl	2.5071130	0.0109067	1.0645960
H	1.6986663	-1.2934287	-0.7095369
C	0.0338457	-0.0296027	-0.0821648
H	-0.1480128	1.0115844	0.2103734
H	-0.2549823	-0.6591105	0.7679488
N	-0.8581948	-0.3632489	-1.2029673
H	-0.8970875	0.4222825	-1.8562982
H	-1.8136072	-0.4422712	-0.8458076
O	0.9159170	6.1960996	-2.0744289
H	1.6973942	6.0578927	-2.6362579
C	0.5605916	4.9348958	-1.5383301
H	-0.3175647	5.0549287	-0.8995398
H	1.3900310	4.5438089	-0.9440387
H	0.3246632	4.2452630	-2.3525014
