18
-0.00142796 (energy)
C	2.0975886	0.0226134	-1.4791979
O	3.1019952	-0.5518174	-1.0682532
H	2.1906821	1.0269938	-1.9287423
C	0.6767352	-0.4759302	-1.3549634
Cl	0.6596414	-2.2613915	-1.3675090
H	0.1220276	-0.1519589	-2.2414026
C	0.0310449	0.0530802	-0.0706514
H	0.6032134	-0.2552996	0.8126644
H	-0.9728598	-0.3767169	0.0285693
N	-0.1102648	1.5169149	-0.0488818
H	0.7713204	1.9425173	0.2462173
H	-0.7720017	1.7688159	0.6895427
O	6.8865201	1.1814045	-3.7147005
H	7.3317646	0.7472515	-2.9672193
C	5.5416794	0.7390382	-3.7118097
H	5.0109327	1.2098426	-4.5426349
H	5.0656180	1.0234865	-2.7702388
H	5.5140075	-0.3466207	-3.8330927
