18
-0.000640949 (energy)
C	0.0934697	-1.8810423	-1.7439493
O	1.1143258	-2.5602622	-1.8086948
H	-0.3743131	-1.5117425	-2.6736446
C	-0.5743471	-1.4012711	-0.4764145
Cl	-0.2893446	-2.5753780	0.8383358
H	-1.6555121	-1.3794117	-0.6468158
C	-0.0457952	-0.0195382	-0.0793345
H	1.0407098	-0.0419243	0.0680681
H	-0.4954347	0.2745622	0.8765546
N	-0.3634155	1.0302823	-1.0592574
H	0.3224052	1.0110638	-1.8173432
H	-0.2244237	1.9417534	-0.6159491
O	4.9401398	0.4484291	2.2126271
H	4.8439561	-0.5166043	2.2827612
C	4.9256284	0.7688893	0.8337190
H	5.0321749	1.8501448	0.7190291
H	3.9772683	0.4497970	0.3945217
H	5.7580211	0.2678604	0.3334961
