18
-0.000298852 (energy)
C	0.3184143	-1.3776595	2.1422144
O	0.2674821	-0.7918896	3.2201562
H	1.1202132	-2.1150892	1.9609619
C	-0.5804918	-1.1287582	0.9535933
Cl	-2.1869280	-0.5868383	1.5139570
H	-0.7349400	-2.0811732	0.4364049
C	0.0379461	-0.0831036	0.0206591
H	0.2114500	0.8617976	0.5496013
H	-0.6632680	0.1277022	-0.7955852
N	1.3048847	-0.5191022	-0.5859926
H	2.0730554	-0.3558748	0.0687471
H	1.5138417	0.0934352	-1.3783028
O	6.0954578	0.1682443	-1.5881168
H	6.1488352	0.0188343	-0.6288009
C	5.4003113	-0.9333314	-2.1427296
H	5.3224756	-0.7965986	-3.2238702
H	4.3977514	-0.9872773	-1.7113777
H	5.9490123	-1.8547314	-1.9327781
