18
0.00148747 (energy)
C	-1.8326282	1.8503346	1.6216211
O	-2.8630969	1.6173462	2.2473443
H	-1.8968111	2.3059911	0.6177315
C	-0.4308293	1.4886917	2.0540313
Cl	-0.3255508	1.5037757	3.8364484
H	0.2494720	2.2672880	1.6942948
C	-0.0379734	0.1118794	1.5097176
H	-0.7356890	-0.6607288	1.8546684
H	0.9542830	-0.1546726	1.8928261
N	0.0266735	0.0618740	0.0411895
H	-0.9116509	-0.0809035	-0.3390411
H	0.5410395	-0.7787958	-0.2332597
O	3.5605501	1.7156448	-0.4197941
H	3.9381587	0.9717269	-0.9192514
C	4.0745229	1.6363178	0.8969565
H	3.6684548	2.4611269	1.4872259
H	5.1642127	1.7130867	0.8689613
H	3.7769150	0.6868257	1.3486476
