18
0.00272345 (energy)
C	-0.5593091	0.2430933	-0.2499992
O	0.4543979	-0.2136234	0.2710448
H	-0.5520242	0.4958863	-1.3249780
C	-1.8436171	0.5935593	0.4645152
Cl	-2.0622270	-0.4789904	1.8752486
H	-2.6785116	0.3912899	-0.2140647
C	-1.8299985	2.0595998	0.9080971
H	-0.9789395	2.2621274	1.5694615
H	-2.7412397	2.2686766	1.4810904
N	-1.7860005	3.0084774	-0.2148232
H	-0.8205988	3.1195238	-0.5327567
H	-2.0458617	3.9351632	0.1320861
O	2.8003091	0.4112146	-2.3211953
H	2.1221966	1.0697126	-2.5492382
C	3.3301425	-0.0792759	-3.5389756
H	4.0980268	-0.8243320	-3.3179228
H	3.7761669	0.7446363	-4.1014094
H	2.5323424	-0.5438953	-4.1235902
