18
-0.00411556 (energy)
C	2.2565497	-0.0269608	-2.0782627
O	3.4037216	0.4079286	-2.0277975
H	1.4787798	0.5498495	-2.6092059
C	1.7491900	-1.2738805	-1.3922731
Cl	3.0701212	-2.4673292	-1.2539153
H	0.9837933	-1.7275609	-2.0300616
C	1.1901261	-0.9363551	-0.0067229
H	1.9543780	-0.4616355	0.6203992
H	0.8918024	-1.8647411	0.4947722
N	0.0105503	-0.0589431	-0.0514864
H	0.3100278	0.9144180	-0.1425626
H	-0.4566176	-0.0954421	0.8579324
O	7.2007197	-0.5966303	-2.1173246
H	6.2885224	-0.3861366	-1.8545546
C	7.8146204	0.6201573	-2.5005307
H	8.8449566	0.4185830	-2.8028458
H	7.8141199	1.3118255	-1.6545426
H	7.2690817	1.0555967	-3.3413104
