18
-0.00390757 (energy)
C	-1.1971077	2.8088416	-0.2987664
O	-1.0317658	3.6677409	-1.1605279
H	-0.6698749	2.8987803	0.6673978
C	-2.0086863	1.5435570	-0.4510796
Cl	-3.3499626	1.8203337	-1.5968084
H	-2.4666037	1.3126251	0.5160886
C	-1.1236180	0.3915694	-0.9366761
H	-0.6495866	0.6371169	-1.8946544
H	-1.7482754	-0.4941617	-1.1030447
N	-0.0733180	0.0183261	0.0229144
H	0.7264411	0.6466628	-0.0819276
H	0.2922647	-0.9012925	-0.2364529
O	3.3179551	0.8492625	1.4145724
H	4.0677175	0.3412908	1.0606223
C	3.1767359	0.4884556	2.7762510
H	2.3395361	1.0434891	3.2059642
H	4.0927084	0.7383421	3.3172244
H	2.9773462	-0.5833350	2.8513462
