18
-0.00387666 (energy)
C	2.5305381	-0.9335713	-1.4617594
O	3.5798927	-1.4065790	-1.0342111
H	2.4920255	0.1312228	-1.7520470
C	1.2063246	-1.6546667	-1.5581145
Cl	1.4856787	-3.3978557	-1.8256496
H	0.6785092	-1.2835165	-2.4424734
C	0.3812921	-1.4373721	-0.2859786
H	0.9239440	-1.7901730	0.5993361
H	-0.5424285	-2.0243435	-0.3538009
N	-0.0013413	-0.0335044	-0.0714990
H	0.7712477	0.4690616	0.3711602
H	-0.7526105	-0.0035398	0.6222713
O	7.2721014	-1.4302525	-2.1008699
H	6.4978614	-1.0706542	-1.6353581
C	6.7849152	-2.2225403	-3.1682136
H	7.6325753	-2.6433828	-3.7140921
H	6.1918896	-1.6008892	-3.8434703
H	6.1714597	-3.0344710	-2.7700033
