11
-0.00421613 (energy)
C	-0.2055015	-0.2556314	1.3447648
H	-0.4247849	-1.2938517	1.5640669
C	-0.1352601	0.7030303	2.2688538
H	-0.3023254	0.4655015	3.3149145
H	0.0862185	1.7342820	2.0197559
O	-0.0114453	-0.0558156	0.0088723
H	0.1816454	0.8858331	-0.1408101
C	3.1008907	0.0928057	-0.0797430
H	2.9508891	-0.0646431	1.0002759
H	3.2249223	-0.8224723	-0.6802746
O	3.1279511	1.2105600	-0.5793748
