11
-0.00302221 (energy)
C	-0.3491597	-0.6792584	-1.1544117
H	0.2003498	-1.6013198	-1.3024724
C	-1.2793984	-0.2225597	-1.9934521
H	-1.5274628	-0.7824279	-2.8898814
H	-1.8134815	0.7042687	-1.8193054
O	0.0306363	-0.0485489	-0.0054323
H	-0.4862200	0.7705062	0.0862147
C	3.3704847	-0.0667834	-0.0198146
H	2.8666653	-0.3185732	0.9270218
H	3.8916346	0.9037153	-0.0368755
O	3.3524379	-0.8156545	-0.9886310
