11
-0.00295545 (energy)
C	-0.0344207	0.1988583	1.3693945
H	0.0523784	-0.7142591	1.9462503
C	-0.1632646	1.4117986	1.9079869
H	-0.1864529	1.5297855	2.9869286
H	-0.2481326	2.3085229	1.3052716
O	0.0047935	-0.0500473	0.0282378
H	-0.0760767	0.7942873	-0.4481549
C	3.0373145	0.0833914	-0.0104233
H	2.8154572	-0.5147798	-0.9085891
H	3.0038115	-0.4642313	0.9449525
O	3.3033992	1.2772868	-0.0700187
