11
-0.00291162 (energy)
C	-0.0832541	-0.0046676	0.0097395
H	0.9912918	0.0555769	-0.1159664
C	-0.9650003	0.4276031	-0.8922428
H	-0.6215180	0.8726822	-1.8209507
H	-2.0353987	0.3542245	-0.7391239
O	-0.4169019	-0.5765287	1.2029901
H	-1.3866678	-0.6098363	1.2725302
C	4.3780993	-0.8532373	0.9330738
H	3.6980845	-1.5261732	1.4793964
H	5.4410184	-0.9213862	1.2147021
O	3.9791360	-0.0810373	0.0703604
