11
-0.00272351 (energy)
C	-0.4841164	1.1483686	0.6023715
H	-0.1218463	2.0646955	0.1516105
C	-1.3190163	1.1076386	1.6412121
H	-1.6784735	2.0292247	2.0884742
H	-1.6649642	0.1751099	2.0716690
O	0.0207710	0.0471765	-0.0258463
H	-0.3296500	-0.7487256	0.4101995
C	3.0166565	-0.0850981	-0.0309103
H	2.9555090	0.7707806	-0.7218979
H	3.0355362	0.1701980	1.0406415
O	3.0606969	-1.2429268	-0.4274354
