11
-0.00270547 (energy)
C	0.0605724	-0.0413740	-0.0408296
H	-0.7212257	0.4926331	0.4861507
C	-0.1666962	-0.9765537	-0.9637025
H	-1.1846029	-1.2451860	-1.2287994
H	0.6361972	-1.4947084	-1.4750346
O	1.3009779	0.3635179	0.3587325
H	1.9685832	-0.1401442	-0.1382771
C	4.9662120	1.7327574	-0.3544603
H	4.5006028	2.5610836	0.2030477
H	5.5183582	2.0228629	-1.2626063
O	4.8760530	0.5673681	0.0108862
