11
-0.00261855 (energy)
C	-0.5008778	1.2294841	0.3917411
H	0.0344826	2.0733749	-0.0269685
C	-1.5474308	1.3420038	1.2102596
H	-1.9131020	2.3233627	1.4962544
H	-2.0638692	0.4790280	1.6141740
O	0.0302108	0.0430587	-0.0236294
H	-0.4794668	-0.6833720	0.3750160
C	4.1187900	0.0010678	-0.1475081
H	4.5161648	-1.0213580	-0.0451850
H	3.0207878	0.0819095	-0.1876533
O	4.8488170	0.9821906	-0.2122952
