11
-0.0026023 (energy)
C	-1.2155665	0.6474430	-0.1385149
H	-1.4234519	0.9757695	-1.1499818
C	-2.0398859	0.8388084	0.8919138
H	-2.9858210	1.3510846	0.7457843
H	-1.8051886	0.4989632	1.8939143
O	-0.0085446	0.0163694	-0.0546271
H	0.1356086	-0.2597939	0.8669718
C	3.9689147	-0.1929687	0.1626871
H	2.9608144	-0.3304921	-0.2598674
H	4.6757134	0.3689597	-0.4685245
O	4.2828800	-0.6351824	1.2606906
