11
-0.00256631 (energy)
C	-0.1794056	0.0572911	1.3713140
H	-0.4063177	-0.9010723	1.8231221
C	-0.0777040	1.1981734	2.0539199
H	-0.2249313	1.2051784	3.1294890
H	0.1506744	2.1430002	1.5746202
O	-0.0119187	-0.0521853	0.0214414
H	0.1891580	0.8282176	-0.3402904
C	3.9719692	0.1018476	-0.3427627
H	4.8006180	0.2628116	-1.0506913
H	3.9132244	-0.9060518	0.0981950
O	3.1697372	0.9843286	-0.0645720
