11
-0.00250147 (energy)
C	-0.3073011	1.2943467	0.3823655
H	0.1763312	2.0546458	-0.2194028
C	-1.1260192	1.5586287	1.4010717
H	-1.3443447	2.5867876	1.6727277
H	-1.5960739	0.7766136	1.9859509
O	0.0269633	0.0383716	-0.0335513
H	-0.4279275	-0.6089848	0.5324832
C	3.7532628	-0.3042252	0.0065917
H	3.9586220	0.7781514	0.0110556
H	2.8959524	-0.6223043	-0.6079004
O	4.4325757	-1.1006214	0.6422220
