11
-0.00392334 (energy)
C	-0.0182701	1.2293817	-0.6358126
H	-0.0229331	2.0732463	0.0438571
C	-0.0289090	1.3418417	-1.9644005
H	-0.0431863	2.3231206	-2.4285790
H	-0.0238656	0.4788942	-2.6200520
O	-0.0002109	0.0430575	0.0383549
H	0.0033477	-0.6833533	-0.6087198
C	3.3817654	-0.2299144	-0.0167313
H	2.9714503	-0.2782894	1.0045584
H	4.1825876	0.5105598	-0.1720947
O	2.9748769	-0.9510632	-0.9190201
