11
-0.00244394 (energy)
C	0.0531463	-0.0417359	-0.0498144
H	-0.6328033	0.4969421	0.5931314
C	-0.3209436	-0.9825283	-0.9174969
H	-1.3684736	-1.2512409	-1.0126186
H	0.3883636	-1.5052864	-1.5485198
O	1.3420720	0.3637496	0.1410910
H	1.9201987	-0.1442056	-0.4540074
C	4.5208964	-0.6083193	1.6342161
H	4.4721196	-1.7049546	1.7277208
H	4.3595721	-0.0446275	2.5669443
O	4.7398191	-0.0529875	0.5649087
