11
-0.00239017 (energy)
C	0.3298083	-0.6497449	-1.1768725
H	-0.5018773	-1.1698067	-1.6372145
C	1.5643507	-0.6248724	-1.6800553
H	1.7865323	-1.1463665	-2.6059349
H	2.3775044	-0.0956665	-1.1970389
O	-0.0459205	-0.0267788	-0.0223448
H	0.7287920	0.4249981	0.3546288
C	4.8636264	-1.0089389	1.5202459
H	5.7243976	-1.6706438	1.3332942
H	4.2463072	-1.2686184	2.3950256
O	4.6099423	-0.0488688	0.8035530
