11
-0.00237403 (energy)
C	0.1378603	-1.0984495	-0.8308874
H	0.1614366	-0.8491742	-1.8851104
C	0.2313485	-2.3409225	-0.3560955
H	0.3386291	-3.1787523	-1.0380823
H	0.2047284	-2.5604292	0.7048903
O	0.0009700	0.0160229	-0.0553842
H	-0.0153950	-0.2542954	0.8789878
C	3.2081382	0.1614144	0.1486962
H	3.6455841	0.6333276	-0.7455467
H	2.9930607	-0.9154582	0.0601361
O	2.9764311	0.7917564	1.1727663
