11
-0.00234413 (energy)
C	-0.0139821	0.0049877	-0.0826287
H	0.1664829	-0.0593877	0.9838460
C	-0.6976356	-0.9032858	-0.7794527
H	-1.1133850	-1.7734624	-0.2809360
H	-0.8625371	-0.8124859	-1.8467603
O	0.5449886	1.1286290	-0.6185158
H	0.3587360	1.1447263	-1.5732104
C	3.4463402	-0.1150198	0.2055826
H	3.4110484	0.9852009	0.2503066
H	3.1482104	-0.5608972	-0.7567416
O	3.7937592	-0.7968469	1.1616950
