11
-0.00232282 (energy)
C	-1.2979066	-0.2444538	0.4143087
H	-1.6291286	0.4013256	1.2188837
C	-2.0537020	-1.1928868	-0.1399067
H	-3.0679534	-1.3564292	0.2109804
H	-1.6952372	-1.8245600	-0.9443162
O	-0.0150576	0.0356302	0.0427650
H	0.2389757	-0.5654762	-0.6787120
C	3.3347638	0.0341124	-0.1212445
H	2.8372238	0.9196450	0.3053904
H	3.2736692	-0.8833142	0.4856754
O	3.9168524	0.0673287	-1.1981885
