11
-0.00227137 (energy)
C	-0.3388163	-0.7683449	-1.1003728
H	0.0233258	-1.7883338	-1.0498180
C	-1.0467520	-0.2779333	-2.1183267
H	-1.2941084	-0.9103368	-2.9653534
H	-1.3960930	0.7477385	-2.1415866
O	0.0204355	-0.0536664	0.0052337
H	-0.3243260	0.8517253	-0.0830630
C	3.9517022	0.0073455	0.1048521
H	2.9827705	0.1625164	-0.3959720
H	3.9553880	0.1741674	1.1938483
O	4.9574781	-0.3281673	-0.5079976
