11
-0.00223176 (energy)
C	-0.0073099	-0.0825417	0.0134653
H	0.0870372	0.9828100	-0.1603290
C	-0.5401506	-0.9364957	-0.8610345
H	-0.9125792	-0.5780535	-1.8157020
H	-0.6214965	-1.9982970	-0.6596805
O	0.4863676	-0.4365859	1.2354016
H	0.3813063	-1.3971670	1.3478170
C	4.0141115	0.5631541	0.3811571
H	3.4924462	1.5274033	0.4898774
H	3.4207887	-0.3291662	0.6370639
O	5.1759067	0.4881889	0.0012215
