11
-0.00221531 (energy)
C	-1.3019677	0.4480499	0.1417816
H	-1.7416949	0.8127506	-0.7789320
C	-1.9377994	0.4239808	1.3135517
H	-2.9593957	0.7838278	1.3872065
H	-1.4721068	0.0530528	2.2191595
O	-0.0209422	0.0187958	-0.0503312
H	0.3323671	-0.2983027	0.7987931
C	3.7721863	0.0520874	0.1017920
H	4.6104596	0.2945022	-0.5707139
H	3.1036649	-0.7525472	-0.2437486
O	3.5952959	0.6378988	1.1625811
