11
-0.00209433 (energy)
C	-0.0273980	-0.0490667	0.0623674
H	0.3262230	0.5842284	-0.7425981
C	-0.8618213	0.3576071	1.0195825
H	-1.2298959	1.3789153	1.0245335
H	-1.1989697	-0.2989528	1.8132088
O	0.4877777	-1.3094447	-0.0283746
H	0.1448732	-1.8405085	0.7110703
C	3.4442465	-0.8400098	-1.0107345
H	3.3205253	-1.9156868	-0.8074040
H	3.5573694	-0.5673774	-2.0721632
O	3.4552893	-0.0032402	-0.1166240
