11
-0.0020943 (energy)
C	-0.0142495	0.0126603	0.0817591
H	0.1696659	-0.1507445	-0.9734916
C	-0.4482275	-0.9309031	0.9179753
H	-0.6396610	-1.9357646	0.5544091
H	-0.6235799	-0.7382187	1.9699768
O	0.2536915	1.3008884	0.4435176
H	0.0753258	1.4012797	1.3945687
C	4.0147277	1.2251009	-0.8420258
H	4.6206084	1.7920890	-1.5667081
H	3.0441640	1.6753995	-0.5793602
O	4.3947055	0.1651052	-0.3606062
