11
-0.00203034 (energy)
C	-0.0085496	0.0494373	-0.0673108
H	0.1017981	-0.5886412	0.8014580
C	-0.4265808	1.3145212	-0.0151664
H	-0.6807981	1.7660270	0.9388199
H	-0.5274165	1.9295564	-0.9018155
O	0.3332440	-0.6039116	-1.2155727
H	0.2193315	0.0043388	-1.9662034
C	3.7413024	-0.2247607	-0.6599119
H	3.5130669	-1.1165081	-1.2652436
H	3.0353668	0.6144001	-0.7658355
O	4.7146855	-0.1699521	0.0812091
