11
-0.00202595 (energy)
C	-0.0829712	-0.0112146	-0.0061562
H	0.9879236	0.1335301	0.0733008
C	-0.7092144	-1.1413585	0.3232381
H	-0.1436861	-1.9891286	0.6974539
H	-1.7829837	-1.2574758	0.2331331
O	-0.7054454	1.1052226	-0.4839499
H	-1.6608818	0.9303978	-0.5384351
C	4.4705396	1.0825336	-0.6247884
H	5.0063193	0.9899916	-1.5829676
H	4.4038566	2.1028994	-0.2147118
O	3.9817421	0.1157689	-0.0536650
