11
-0.00202035 (energy)
C	-0.0814641	-0.0087668	0.0182929
H	0.9699788	0.1043850	-0.2178101
C	-1.0721918	0.3769056	-0.7864567
H	-0.8491911	0.8360822	-1.7445806
H	-2.1160256	0.2509122	-0.5235512
O	-0.2610228	-0.5933995	1.2381930
H	-1.2155284	-0.6745945	1.4076555
C	4.1920614	-1.2490183	-0.5290012
H	5.2170582	-1.5965377	-0.7347759
H	3.3938742	-1.9832030	-0.7229752
O	3.9557141	-0.1219073	-0.1124682
