11
-0.00192171 (energy)
C	1.0927433	-0.1144776	0.8905975
H	2.1214504	-0.2375569	0.5732755
C	0.0615574	-0.0064220	0.0522146
H	0.2250339	-0.0395243	-1.0205172
H	-0.9579873	0.1159895	0.3988075
O	0.9881268	-0.0843687	2.2508703
H	0.0515593	0.0270351	2.4892428
C	5.7103075	-0.4604477	0.3492930
H	6.3296912	-1.3620203	0.2179081
H	5.8556695	0.0814309	1.2974455
O	4.9134544	-0.0856392	-0.5017550
