11
-0.00330646 (energy)
C	0.0534999	0.0642690	-0.0074261
H	-0.6370138	-0.7652394	0.0884218
C	-0.3230790	1.3349138	-0.1542472
H	-1.3775789	1.5912851	-0.1838706
H	0.3909474	2.1448460	-0.2478363
O	1.3510017	-0.3556448	0.0410953
H	1.9329730	0.4187521	-0.0484025
C	5.2696663	-1.6229424	-0.3683731
H	4.6824428	-2.4343298	-0.8272308
H	6.3346439	-1.8463954	-0.1961890
O	4.7718708	-0.5446522	-0.0696614
