11
-0.00191321 (energy)
C	0.0525859	-0.0559939	0.0338716
H	-0.6261312	0.6667099	-0.4033039
C	0.5293781	0.0253322	1.2764342
H	0.2415750	0.8524720	1.9179815
H	1.2077025	-0.7132969	1.6873913
O	0.3553623	-1.0547777	-0.8453044
H	0.9644091	-1.6775367	-0.4121484
C	3.6183277	1.3728211	-0.2807431
H	3.5677298	1.7760098	-1.3047598
H	3.7955014	2.1153116	0.5136580
O	3.4864378	0.1790485	-0.0414717
