11
-0.00167827 (energy)
C	0.0445039	-0.0455568	-0.0546980
H	-0.5299003	0.5424365	0.6512793
C	0.3804070	-1.3216400	0.1368411
H	0.0770700	-1.8352098	1.0439279
H	0.9563559	-1.8853373	-0.5878043
O	0.3783847	0.6831692	-1.1590870
H	0.8908756	0.1178437	-1.7625363
C	3.6679590	1.1431196	0.4893954
H	3.9616832	1.2819096	1.5421037
H	3.7556263	2.0362175	-0.1497028
O	3.2705566	0.0679181	0.0584059
