11
-0.00167273 (energy)
C	-0.7979440	-1.0501833	0.5106442
H	-1.3840026	-1.7200733	-0.1073063
C	-0.0452428	-0.0597237	0.0307097
H	0.0076854	0.1157738	-1.0393244
H	0.5310127	0.5953457	0.6736688
O	-0.9280821	-1.3483213	1.8359256
H	-0.3872817	-0.7245063	2.3504941
C	3.6521736	-1.0252174	-0.7680795
H	2.6485037	-1.3002092	-1.1296836
H	4.4242785	-1.8041706	-0.8722037
O	3.8934764	0.0729697	-0.2827992
