11
-0.00166488 (energy)
C	-0.0745943	-0.0370411	0.0105605
H	0.8881821	0.4410418	-0.1257419
C	-0.8646252	0.1645514	1.0656046
H	-0.5568704	0.8423688	1.8558099
H	-1.8236843	-0.3281719	1.1752046
O	-0.3735381	-0.8674708	-1.0302143
H	-1.2424254	-1.2730005	-0.8659847
C	3.8738714	-0.3489933	-1.3019634
H	3.6436925	-1.3874373	-1.5889879
H	4.1183734	0.3304978	-2.1339890
O	3.8589489	0.0250447	-0.1359395
