11
-0.00152192 (energy)
C	-1.1048376	0.8597331	-0.2013704
H	-1.0161639	1.9111913	-0.4476480
C	-0.0642356	0.0480030	-0.0112433
H	0.9483103	0.4292515	-0.1005411
H	-0.1834678	-1.0008151	0.2344128
O	-2.4108753	0.4746079	-0.1111637
H	-2.4422577	-0.4720943	0.1105593
C	4.7263817	-0.6830887	0.7877421
H	4.5294343	-0.9543888	1.8371892
H	5.7301989	-0.9377002	0.4118700
O	3.8856484	-0.1351009	0.0858762
