11
-0.00151965 (energy)
C	0.2974693	0.6480771	-1.2214193
H	0.9551617	1.5049198	-1.3071007
C	0.0160891	0.0360717	-0.0706887
H	0.4546619	0.3904950	0.8570030
H	-0.6462316	-0.8199943	-0.0153248
O	-0.2033646	0.2774154	-2.4354903
H	-0.7856253	-0.4919063	-2.3109608
C	3.4861483	-0.9730950	-0.6911968
H	2.5058917	-1.4592881	-0.8194335
H	4.2563159	-1.2561169	-1.4263814
O	3.7050719	-0.1715839	0.2084649
