11
-0.00151354 (energy)
C	0.6887247	0.6397812	-1.0567381
H	0.4267261	1.6165502	-1.4457870
C	0.0404083	0.0353782	-0.0606009
H	-0.8064923	0.5218485	0.4134031
H	0.3253580	-0.9430903	0.3081617
O	1.7614304	0.1101467	-1.7132310
H	1.9601729	-0.7627571	-1.3325325
C	5.5598045	-0.3988517	0.6977864
H	6.5265139	0.1128448	0.5659878
H	5.4104420	-0.8875211	1.6738238
O	4.7081335	-0.4228523	-0.1818836
