11
-0.00330401 (energy)
C	-0.7674638	-0.6845138	0.9265046
H	-0.3670613	-0.6555850	1.9329444
C	-1.8930753	-1.3148886	0.5895579
H	-2.4696682	-1.8419002	1.3434632
H	-2.2698092	-1.3268715	-0.4265674
O	0.0234829	0.0031195	0.0525729
H	-0.3726911	-0.0495081	-0.8343698
C	3.1648280	-0.0775361	0.0130237
H	2.8578403	0.6832207	0.7483733
H	3.1216056	0.2371369	-1.0419022
O	3.5297449	-1.1981168	0.3460003
