11
-0.00330129 (energy)
C	-0.0223890	0.0130419	-0.0798531
H	0.2665821	-0.1552873	0.9507977
C	-1.1170960	-0.5014245	-0.6409659
H	-1.7828193	-1.1321155	-0.0599192
H	-1.3811484	-0.3156353	-1.6755389
O	0.8726695	0.8146972	-0.7267009
H	0.5744163	0.9380854	-1.6444216
C	3.9811290	-0.1432589	0.2807925
H	3.6456682	0.8984316	0.4075924
H	3.4583942	-0.7187250	-0.4998117
O	4.8753527	-0.6290697	0.9620346
