11
-0.00320527 (energy)
C	0.0661219	-0.0106520	-0.0506193
H	-0.7873023	0.1268316	0.6027149
C	0.6656441	-1.1835493	-0.2574804
H	0.3037583	-2.0767011	0.2424120
H	1.5185733	-1.2910799	-0.9174286
O	0.4468356	1.1639763	-0.6315654
H	1.2126494	0.9935855	-1.2067934
C	3.6653939	0.1686407	1.5348261
H	3.7000637	-0.6634772	2.2560120
H	3.3991441	1.1512152	1.9560320
O	3.9066956	0.0118845	0.3444733
