11
-0.00476692 (energy)
C	-1.3701146	-0.1843106	-0.0691829
H	-1.7197641	-1.0661774	0.4543974
C	-2.1679581	0.6586268	-0.7255431
H	-3.2386367	0.4821940	-0.7585989
H	-1.7895511	1.5337772	-1.2408126
O	-0.0158951	-0.0474833	0.0285966
H	0.2522670	0.7535946	-0.4538495
C	2.9928419	0.0616582	-0.0844898
H	2.8472789	0.4678079	0.9292089
H	3.1539472	-1.0267232	-0.1412959
O	2.9766473	0.7725171	-1.0815637
