11
-0.00623241 (energy)
C	-0.6581002	-1.0609175	0.5977700
H	-0.7125984	-1.9474290	-0.0228807
C	-1.1704585	-0.9777975	1.8259746
H	-1.6803289	-1.8307537	2.2630923
H	-1.1007120	-0.0768236	2.4242757
O	-0.0014717	-0.0457551	-0.0350628
H	0.0233574	0.7261658	0.5564714
C	3.3163579	0.7354712	0.4582389
H	4.3894518	0.8559736	0.2398818
H	2.7954611	-0.0355563	-0.1316246
O	2.7409652	1.4132966	1.3003879
