11
-0.00617707 (energy)
C	-1.2368238	-0.1756208	0.5961501
H	-1.3392459	0.3311215	1.5484117
C	-2.1997426	-0.9057141	0.0325390
H	-3.1579852	-1.0215452	0.5294576
H	-2.0686570	-1.4017807	-0.9220903
O	-0.0027680	0.0279226	0.0503761
H	0.0439294	-0.4431522	-0.7995055
C	3.2400766	-0.4503710	-0.6463452
H	4.2194228	0.0086558	-0.8558845
H	2.8129275	-0.2264183	0.3441824
O	2.6646839	-1.1620228	-1.4601104
