11
-0.00424986 (energy)
C	0.6581003	0.4284708	1.1398630
H	0.7125984	1.5065247	1.2342555
C	1.1704586	-0.4246774	2.0272938
H	1.6803290	-0.0522488	2.9104149
H	1.1007121	-1.4994440	1.9064843
O	0.0014717	0.0575883	0.0025511
H	-0.0233574	-0.9139682	-0.0404885
C	3.2359176	-1.0260131	-0.6501676
H	4.3090116	-0.9779660	-0.4054390
H	2.7150208	-0.0562148	-0.6939130
O	2.6605249	-2.0865804	-0.8595933
