11
-0.00316657 (energy)
C	-0.0780777	0.0198469	-0.0236189
H	0.9296579	-0.2363136	0.2812265
C	-1.1575082	-0.6964291	0.2921104
H	-1.0585950	-1.5973039	0.8897847
H	-2.1543458	-0.4155453	-0.0272666
O	-0.1010211	1.1632790	-0.7680849
H	-1.0215219	1.3539724	-1.0184953
C	3.7051148	0.3588616	-1.2716129
H	3.0515944	-0.0880123	-2.0377370
H	4.3741863	1.1590383	-1.6263191
O	3.6889209	-0.0092606	-0.1037247
