11
-0.00410143 (energy)
C	0.0770537	0.0318174	-0.0099125
H	-0.9174658	-0.3788439	0.1180266
C	0.5387977	1.0893861	0.6581050
H	-0.0923311	1.5951092	1.3823247
H	1.5393120	1.4784647	0.5092032
O	0.7927445	-0.6681431	-0.9372933
H	1.6748000	-0.2660314	-1.0189961
C	3.2392506	-2.4508603	1.4276525
H	2.9536488	-2.4751389	2.4914069
H	3.3330731	-3.4336421	0.9386809
O	3.4390820	-1.4015309	0.8287251
