11
-0.0030431 (energy)
C	-0.0785972	0.0295019	0.0000000
H	0.9358434	-0.3512740	-0.0000005
C	-1.1652097	-0.7432721	0.0000002
H	-1.0656385	-1.8243176	0.0000001
H	-2.1686802	-0.3338461	-0.0000024
O	-0.1016932	1.3939284	0.0000010
H	-1.0283206	1.6901591	-0.0000163
C	3.5868581	1.2568952	0.3746535
H	3.3741694	1.5589112	1.4125751
H	3.6909289	2.0818952	-0.3480499
O	3.7000410	0.0825707	0.0461869
