11
-0.00291889 (energy)
C	-1.3334829	0.2006026	-0.3123341
H	-1.8947004	-0.7169134	-0.4437854
C	-1.8585322	1.4200722	-0.4353133
H	-2.9091594	1.5392342	-0.6813958
H	-1.2721263	2.3210973	-0.2979654
O	-0.0274698	-0.0502903	-0.0064330
H	0.4359657	0.7981434	0.1020970
C	3.8785730	0.1362582	0.0665414
H	4.7871088	-0.4716161	0.2035914
H	2.9440519	-0.4308781	-0.0705086
O	3.9056322	1.3605975	0.0665414
