11
-0.00370439 (energy)
C	-0.2285557	-0.8459589	-1.0714880
H	-0.2474821	-1.8957105	-0.8036381
C	-0.4064960	-0.3894112	-2.3115718
H	-0.5835719	-1.0828529	-3.1278785
H	-0.3822700	0.6675249	-2.5500709
O	-0.0005124	-0.0551073	0.0169710
H	0.0081328	0.8745923	-0.2693417
C	2.7712404	0.5751059	0.0705430
H	2.7165706	0.1539777	-0.9460167
H	2.7238683	-0.1581577	0.8914183
O	2.8775686	1.7779573	0.2744587
