11
-0.0035796 (energy)
C	-1.3162004	0.4026308	-0.1465456
H	-1.4251959	1.4156702	-0.5152612
C	-2.3409172	-0.3990663	0.1452483
H	-3.3606578	-0.0490979	0.0178705
H	-2.2014198	-1.4090156	0.5128426
O	-0.0029452	0.0541150	-0.0196973
H	0.0467428	-0.8588436	0.3126108
C	2.9530017	-0.6399996	-0.3108307
H	3.5930172	-0.6631658	0.5855927
H	2.7631468	0.3597576	-0.7329640
O	2.4839377	-1.6575800	-0.8050451
