11
-0.00272841 (energy)
C	-0.0813223	-0.0174695	-0.0113746
H	0.9682908	0.2080058	0.1354357
C	-0.6951203	-1.0815577	0.5071566
H	-0.1408306	-1.7865693	1.1189535
H	-1.7475505	-1.2817665	0.3431753
O	-0.6914264	0.9219762	-0.7907384
H	-1.6278735	0.6800700	-0.8953288
C	3.8364412	0.4077542	-1.3187488
H	4.7449771	0.4487833	-1.9405289
H	2.9019202	0.7000651	-1.8237049
O	3.8635005	0.0604201	-0.1447106
