11
-0.00342585 (energy)
C	-0.2285558	-0.4284708	1.2962044
H	-0.2474832	-1.5065246	1.4035439
C	-0.4064959	0.4246775	2.3053535
H	-0.5835721	0.0522490	3.3096018
H	-0.3822750	1.4994441	2.1679749
O	-0.0005104	-0.0575883	0.0029007
H	0.0081009	0.9139682	-0.0460355
C	2.8977806	0.6018843	0.2821916
H	3.2223864	0.5538372	-0.7694993
H	2.6752168	-0.3679140	0.7551741
O	2.7914523	1.6624516	0.8852092
