11
-0.0027135 (energy)
C	-1.3209327	-0.3082580	-0.2758344
H	-1.5468379	-1.3657531	-0.2069074
C	-2.2167047	0.6264109	-0.5950414
H	-3.2446341	0.3475301	-0.8051853
H	-1.9616642	1.6779670	-0.6564158
O	-0.0092850	-0.0567432	0.0043684
H	0.1473592	0.9005561	-0.0693300
C	3.5416781	0.1615100	0.1422066
H	2.7658822	0.0938072	-0.6370804
H	4.0460202	-0.7851666	0.3935992
O	3.8245408	1.2184668	0.6922701
