11
-0.00467834 (energy)
C	-1.1044079	-0.7490297	-0.3677069
H	-1.1958644	-1.6858671	0.1689974
C	-1.9642355	-0.3364092	-1.2995585
H	-2.8198874	-0.9506828	-1.5624301
H	-1.8471835	0.6066949	-1.8205538
O	-0.0024719	-0.0491928	0.0299841
H	0.0392302	0.7807249	-0.4758701
C	2.8274724	0.0483739	-0.0715908
H	2.6147838	-1.0325847	-0.0764320
H	2.9315432	0.5073404	0.9245391
O	2.9406553	0.6964910	-1.1044861
