11
-0.00327397 (energy)
C	0.0770537	0.0152870	0.0296127
H	-0.9174658	-0.1820191	-0.3525932
C	0.5387977	-0.4589369	1.1871146
H	-0.0923311	-1.0843363	1.8109141
H	1.5393120	-0.2447345	1.5444257
O	0.7927445	0.8070319	-0.8207518
H	1.6748000	0.9573194	-0.4389367
C	3.4053189	3.0452595	-1.4830508
H	3.4262488	3.4170292	-2.5199117
H	2.6946884	3.5524101	-0.8110698
O	4.1239657	2.1294406	-1.1028382
