11
-0.00265565 (energy)
C	-1.3209327	-0.3986884	-0.1102503
H	-1.5468379	-1.3155780	0.4211256
C	-2.2167047	0.2970050	-0.8113279
H	-3.2446341	-0.0461897	-0.8757665
H	-1.9616642	1.2119273	-1.3332993
O	-0.0092850	-0.0489011	0.0291129
H	0.1473592	0.7760957	-0.4620427
C	3.3136441	0.0469187	0.0406178
H	2.7121840	-0.2611698	0.9107089
H	2.7957351	0.0114864	-0.9311181
O	4.4800054	0.4048657	0.1465138
