11
-0.00327236 (energy)
C	-1.0082680	0.4284708	0.8460374
H	-1.0917630	1.5065246	0.9160987
C	-1.7932466	-0.4246774	1.5047126
H	-2.5744131	-0.0522488	2.1601894
H	-1.6863837	-1.4994440	1.4150475
O	-0.0022568	0.0575883	0.0018924
H	0.0358175	-0.9139682	-0.0300333
C	2.7982032	-0.3869027	-0.4375727
H	2.7521163	-0.7152667	0.6130388
H	2.6879510	0.6969399	-0.6015412
O	2.9611073	-1.1740842	-1.3614484
