11
-0.00265051 (energy)
C	-0.0798381	-0.0217921	-0.0141019
H	0.9506188	0.2594745	0.1679084
C	-0.5582674	-1.2542224	0.1594709
H	0.0956676	-2.0497425	0.5031138
H	-1.5949361	-1.5066045	-0.0308025
O	-0.8213906	1.0410699	-0.4414394
H	-1.7353218	0.7434632	-0.5916094
C	4.7404293	0.6571606	0.4932314
H	4.6837070	1.4664002	1.2386474
H	5.7540656	0.4035009	0.1440121
O	3.7433528	0.0782457	0.0803938
