11
-0.00317123 (energy)
C	-0.0770537	0.0244932	0.0225984
H	0.9174655	-0.2916368	-0.2690752
C	-0.5387976	-0.0252422	1.2724886
H	0.0923312	-0.3995735	2.0725675
H	-1.5393137	0.2982449	1.5349888
O	-0.7927438	0.4776501	-1.0472752
H	-1.6748111	0.7494307	-0.7398934
C	2.8654106	0.8349740	-2.3695233
H	3.2925461	0.7066441	-3.3769051
H	1.8860533	1.3379869	-2.3296069
O	3.4408015	0.4445648	-1.3614336
