11
-0.00314819 (energy)
C	-1.2368238	0.6175895	0.0694323
H	-1.3392459	1.4673892	-0.5949699
C	-2.1997426	0.1893202	0.8863039
H	-3.1579852	0.6988034	0.9140863
H	-2.0686570	-0.6646651	1.5406038
O	-0.0027680	0.0447621	-0.0362461
H	0.0439294	-0.7104067	0.5752524
C	3.5776499	0.8762093	-0.4663783
H	3.6645136	1.5924033	-1.2989959
H	2.6447432	0.9366641	0.1165335
O	4.4592006	0.0669483	-0.2061785
