11
-0.002646 (energy)
C	-0.0798381	-0.0232667	-0.0115072
H	0.9506188	0.2770328	0.1370149
C	-0.5582674	-1.2276276	0.3023825
H	0.0956676	-1.9784447	0.7350677
H	-1.5949361	-1.5001821	0.1423365
O	-0.8213906	0.9835183	-0.5580206
H	-1.7353218	0.6706414	-0.6730373
C	4.0473625	-0.8799756	-0.9621125
H	5.0061818	-1.4218465	-0.9343124
H	3.4060846	-1.0939967	-1.8320052
O	3.7164752	-0.0923493	-0.0846746
