11
-0.00262411 (energy)
C	-0.0809256	0.0190777	-0.0116174
H	0.9635677	-0.2271552	0.1383266
C	-1.0651050	-0.8804702	-0.0221530
H	-0.8435782	-1.9329804	0.1252304
H	-2.1020392	-0.6046138	-0.1746439
O	-0.2592977	1.3605279	-0.1873668
H	-1.2074923	1.5346177	-0.3177917
C	4.0651388	1.2166613	-0.3805095
H	4.1762330	2.0484135	0.3333377
H	4.2657893	1.4657737	-1.4347572
O	3.7403099	0.0904152	-0.0258339
