11
-0.00246829 (energy)
C	-0.0814641	0.0201511	-0.0023284
H	0.9699788	-0.2399352	0.0277237
C	-1.0721918	-0.8663434	0.1001049
H	-0.8491911	-1.9217919	0.2220603
H	-2.1160256	-0.5767340	0.0666383
O	-0.2610228	1.3639670	-0.1576034
H	-1.2155284	1.5506330	-0.1791898
C	3.7553701	1.2559116	0.4643968
H	3.6415680	2.1133998	-0.2178748
H	3.8765394	1.5095511	1.5296390
O	3.7476933	0.0981322	0.0653645
