11
-0.00292078 (energy)
C	-1.0082680	-0.1132689	0.9415607
H	-1.0917637	-1.1023460	1.3761123
C	-1.7932465	0.9137085	1.2687191
H	-2.5744132	0.7879264	2.0120436
H	-1.6863870	1.8929900	0.8168657
O	-0.0022555	-0.0534676	0.0214761
H	0.0357967	0.8485687	-0.3408410
C	3.7959035	0.7697062	-0.5197101
H	4.5998860	0.0252763	-0.4049598
H	2.8001267	0.4503738	-0.1729950
O	3.9957339	1.8781309	-1.0005439
