11
-0.00241084 (energy)
C	-1.1792950	-0.5504779	-0.4713896
H	-1.2769530	-1.6111624	-0.2726653
C	-2.0974253	0.1764110	-1.1090225
H	-3.0110968	-0.2894776	-1.4650084
H	-1.9724366	1.2369833	-1.2938113
O	-0.0026393	-0.0563689	0.0118606
H	0.0418881	0.8946147	-0.1882359
C	3.8428163	0.1792060	0.3266067
H	2.7922284	0.1082594	0.0026268
H	4.5599971	-0.4243215	-0.2523253
O	4.1902363	0.8819923	1.2674199
