11
-0.00278757 (energy)
C	-0.2285558	0.0406973	1.3645793
H	-0.2474832	-0.9356296	1.8341617
C	-0.4064959	1.1875438	2.0210753
H	-0.5835721	1.1810488	3.0921381
H	-0.3822750	2.1505077	1.5243897
O	-0.0005104	-0.0531232	0.0224221
H	0.0081009	0.8431041	-0.3558549
C	3.0841910	0.2203683	-0.7255089
H	2.7681682	0.8719808	0.1047092
H	3.2438747	-0.8379119	-0.4641663
O	3.2470952	0.6440927	-1.8629001
