11
-0.0023119 (energy)
C	-1.1383762	-0.2745589	-0.7380297
H	-1.3330605	-1.3329762	-0.8642477
C	-1.9103500	0.6905723	-1.2385141
H	-2.7962167	0.4376561	-1.8128375
H	-1.6905560	1.7422229	-1.0960208
O	-0.0080021	-0.0568696	-0.0051867
H	0.1269994	0.9025619	0.0823166
C	3.2611347	0.0344890	-0.0764472
H	3.2999036	-1.0225159	0.2317230
H	2.8576948	0.7332650	0.6736890
O	3.6411133	0.4077728	-1.1791776
