11
-0.00270211 (energy)
C	-1.0082680	-0.8720500	-0.3726865
H	-1.0917630	-1.7429217	0.2666032
C	-1.7932466	-0.6418889	-1.4256541
H	-2.5744131	-1.3485181	-1.6883859
H	-1.6863837	0.2390657	-2.0478133
O	-0.0022568	-0.0453316	0.0355674
H	0.0358175	0.7194452	-0.5644807
C	3.2332379	-0.4079113	-0.1540495
H	2.9636259	0.4399901	-0.8037447
H	2.6568121	-0.4915710	0.7810924
O	4.1147890	-1.2042465	-0.4514665
