11
-0.00456501 (energy)
C	-1.1491919	0.2006026	-0.7450418
H	-1.6328474	-0.7169134	-1.0586049
C	-1.6016780	1.4200722	-1.0383964
H	-2.5071056	1.5392342	-1.6254016
H	-1.0963141	2.3210973	-0.7107631
O	-0.0236738	-0.0502903	-0.0153469
H	0.3757197	0.7981434	0.2435664
C	3.0180698	-1.2939756	0.0612747
H	3.4436270	-1.9018499	-0.7530478
H	2.5840470	-1.8611120	0.9001648
O	3.0268852	-0.0696363	0.0356917
