11
0.0176418 (energy)
C	-0.0819989	0.0031260	0.0177284
H	0.9763465	-0.0372210	-0.2110887
C	-0.5733765	0.2183697	1.2384350
H	0.0982568	0.3664788	2.0784030
H	-1.6381025	0.2535029	1.4377008
O	-0.8436207	-0.1934967	-1.0973791
H	-0.1234869	-0.3428580	-1.9445514
C	3.1848028	-1.5508810	-2.0909245
H	2.5200738	-2.4231416	-1.9859097
H	3.5557140	-1.3565437	-3.1099505
O	3.4909628	-0.8444868	-1.1385526
