11
-0.00226354 (energy)
C	-0.0835232	-0.0075896	0.0037617
H	0.9944968	0.0903676	-0.0447903
C	-0.7139332	-1.0603195	0.5255370
H	-0.1446421	-1.8885511	0.9360415
H	-1.7948472	-1.1309131	0.5605231
O	-0.7101391	1.0785662	-0.5345794
H	-1.6719345	0.9476697	-0.4697212
C	5.0145167	-0.0138990	0.0068878
H	5.6021671	0.1027501	-0.9176615
H	5.6021644	-0.1305477	0.9314521
O	3.7898785	-0.0138989	0.0068889
