11
-0.00258224 (energy)
C	0.0628148	-0.0200897	0.0519480
H	-0.7479246	0.2392051	-0.6185355
C	0.4392318	0.7264261	1.0906639
H	-0.0752691	1.6573079	1.3081992
H	1.2548609	0.4415092	1.7449988
O	0.6462503	-1.2021735	-0.3008605
H	1.3653245	-1.3942629	0.3255779
C	4.6375253	-1.3720848	1.6351855
H	5.0500392	-2.3612637	1.3800609
H	4.8126603	-1.0371478	2.6700289
O	4.0252061	-0.6903641	0.8227441
