11
-0.00224139 (energy)
C	-1.1383762	-0.5737489	-0.5393354
H	-1.3330605	-1.5781258	-0.1823968
C	-1.9103500	0.0687356	-1.4163625
H	-2.7962167	-0.4129222	-1.8186308
H	-1.6905560	1.0742773	-1.7557136
O	-0.0080021	-0.0532576	0.0206078
H	0.1269994	0.8452369	-0.3270604
C	3.6423791	0.0320047	-0.1021473
H	2.7353035	0.1918041	0.5023436
H	4.5742034	-0.1097495	0.4682607
O	3.6166075	0.0131969	-1.3263699
