11
-0.00216551 (energy)
C	-1.3701146	-0.1843106	-0.0691829
H	-1.7197641	-1.0661774	0.4543974
C	-2.1679581	0.6586268	-0.7255431
H	-3.2386367	0.4821940	-0.7585989
H	-1.7895511	1.5337772	-1.2408126
O	-0.0158951	-0.0474833	0.0285966
H	0.2522670	0.7535946	-0.4538495
C	3.9750874	0.0005204	-0.0977224
H	3.9183650	-0.4405945	0.9102119
H	4.9887237	0.2480504	-0.4513129
O	2.9780108	0.2022360	-0.7795494
