11
0.0186795 (energy)
C	0.0770537	0.0265083	-0.0201969
H	-0.9174658	-0.3156293	0.2404810
C	0.5387977	1.2487732	0.2458244
H	-0.0923311	1.9716953	0.7534009
H	1.5393120	1.5634601	-0.0271702
O	0.7927445	-0.9484223	-0.6522493
H	0.1160461	-1.8410271	-0.7150058
C	4.4679492	2.8044194	0.9319058
H	5.3699647	3.3600038	0.6295395
H	3.7577000	3.3603498	1.5645537
O	4.2681169	1.6462428	0.5877650
