11
-0.0021515 (energy)
C	-1.3477156	-0.3150937	0.0186906
H	-1.5782013	-1.2176869	0.5721180
C	-2.2616500	0.4372883	-0.5949474
H	-3.3104215	0.1591458	-0.5590462
H	-2.0014388	1.3360706	-1.1418143
O	-0.0094731	-0.0483135	0.0300192
H	0.1503451	0.7667702	-0.4764269
C	3.5230777	-0.0212578	0.0786698
H	3.2443499	0.1471857	-0.9737887
H	2.6824319	-0.0880749	0.7876170
O	4.6894387	-0.1271551	0.4366175
