11
-0.00239412 (energy)
C	1.0252863	-0.7678615	0.5996114
H	1.2412305	-0.7646306	1.6614201
C	0.0590830	-0.0445403	0.0328980
H	-0.5693598	0.5982432	0.6415547
H	-0.1341315	-0.0679099	-1.0332656
O	1.8642688	-1.6025159	-0.0798395
H	1.6348973	-1.5737262	-1.0248003
C	4.7773307	-1.3796976	-1.3554936
H	4.9671799	-1.2453889	-0.2786233
H	4.1373116	-0.6149510	-1.8237821
O	5.2463939	-2.3164892	-1.9896388
