11
-0.00202423 (energy)
C	-0.0771639	-0.0284486	-0.0168608
H	0.9187779	0.3387325	0.2007582
C	-0.5395683	-1.2128780	0.3846560
H	0.0924632	-1.8761825	0.9670109
H	-1.5415134	-1.5541326	0.1517743
O	-0.7938782	0.8716602	-0.7505622
H	-1.6771952	0.5016906	-0.9216309
C	4.8018767	-0.3685000	0.4626283
H	5.0255664	-0.5605785	1.5241367
H	5.6442930	-0.5096194	-0.2331993
O	3.6910193	-0.0213158	0.0815799
