11
0.0162622 (energy)
C	-0.0409994	-0.0524982	-0.0510966
H	0.4881729	0.6250875	0.6083989
C	-0.2866881	0.1987375	-1.3373409
H	0.0491285	1.1289254	-1.7851706
H	-0.8190534	-0.4986363	-1.9736111
O	-0.4218095	-1.1898698	0.5997202
H	-0.0617272	-1.0798962	1.6565310
C	3.3920219	2.2463250	1.2969174
H	3.8973587	1.4998601	1.9302863
H	3.9911039	2.6446763	0.4625476
O	2.2412384	2.6090612	1.5063419
