11
-0.00513878 (energy)
C	-1.2368238	0.2486646	0.5695644
H	-1.3392459	1.2489537	0.9733114
C	-2.1997426	-0.6729016	0.6071081
H	-3.1579852	-0.4422203	1.0622246
H	-2.0686570	-1.6665346	0.1946851
O	-0.0027680	0.0537711	0.0206420
H	0.0439294	-0.8533865	-0.3276040
C	3.1024654	-0.7428693	-0.0544349
H	2.8041434	0.0216335	0.6805962
H	3.8509625	-0.4217291	-0.7963088
O	2.6334025	-1.8740935	-0.0473165
