11
-0.00432259 (energy)
C	-1.3744017	0.0047450	-0.1642196
H	-1.8385929	-0.9593402	0.0065039
C	-2.0456074	1.1062776	-0.5018810
H	-3.1240395	1.0725188	-0.6219577
H	-1.5540069	2.0580254	-0.6664651
O	-0.0221070	-0.0523769	0.0096454
H	0.3508542	0.8312585	-0.1530799
C	3.9071279	0.1138246	0.1304187
H	3.9405184	-0.4237127	-0.8306589
H	4.6528385	-0.2021310	0.8773080
O	3.0953272	1.0031517	0.3536131
