11
-0.0015185 (energy)
C	0.2324135	0.9129109	-1.0549572
H	0.2813637	0.6302115	-2.0998328
C	0.0133932	0.0534474	-0.0593373
H	-0.1290633	-1.0017375	-0.2711503
H	-0.0304072	0.3653483	0.9776690
O	0.4225962	2.2540159	-0.8892436
H	0.3705875	2.4614650	0.0597827
C	3.4167778	1.2390297	-0.7153554
H	3.0042638	1.1595500	-1.7338084
H	3.2416427	2.1999904	-0.2058084
O	4.0290970	0.3205516	-0.1850705
