11
-0.00196111 (energy)
C	-1.0059743	0.3826697	-0.9175711
H	-1.0360723	1.3443155	-1.4159802
C	-0.0582917	0.0204930	-0.0523357
H	0.7479942	0.7052842	0.1916681
H	-0.0539249	-0.9492913	0.4314844
O	-2.0565148	-0.4061723	-1.2867402
H	-1.9890155	-1.2554006	-0.8170103
C	3.7802096	-0.1357561	-1.1422850
H	4.7390288	-0.5930781	-1.4342670
H	3.1389316	0.1950615	-1.9747981
O	3.4493223	-0.0039360	0.0294129
