11
-0.00190687 (energy)
C	-1.0975351	0.7348369	-0.5057556
H	-1.0094474	1.7069439	-0.9762112
C	-0.0638111	0.0408997	-0.0285005
H	0.9420423	0.4433511	-0.0982541
H	-0.1822549	-0.9303363	0.4376051
O	-2.3949404	0.3138577	-0.4644172
H	-2.4261134	-0.5589331	-0.0358667
C	4.6894451	-0.0841143	-0.7158047
H	4.6327228	0.0287801	-1.8102309
H	5.7030814	-0.2120871	-0.3035908
O	3.6923686	-0.0684028	-0.0049388
