11
-0.00135171 (energy)
C	-1.3384162	0.2285821	0.3959158
H	-1.6203118	0.7517018	1.3019846
C	-0.0771272	0.0123318	0.0213596
H	0.7432465	0.3678459	0.6371279
H	0.1750942	-0.5146781	-0.8914534
O	-2.4336293	-0.1784512	-0.3090844
H	-2.1342206	-0.6412390	-1.1106908
C	3.9992100	1.4199761	1.1763522
H	4.7476983	2.1428495	0.8144812
H	3.7008770	1.5331450	2.2308408
O	3.5301456	0.5488320	0.4546699
