11
-0.0017803 (energy)
C	-1.2770943	0.5719360	-0.2056124
H	-1.4370344	1.5804264	-0.5681678
C	-0.0737864	0.0313873	-0.0112836
H	0.8227802	0.6074540	-0.2183812
H	0.0557819	-0.9811771	0.3527331
O	-2.4585107	-0.0707636	0.0254408
H	-2.2673264	-0.9683819	0.3481186
C	3.8572995	-0.8785983	-0.9428171
H	4.8161188	-1.4204693	-0.9150170
H	3.2160215	-1.0926194	-1.8127098
O	3.5264122	-0.0909721	-0.0653792
