11
-0.000934327 (energy)
C	0.6692081	0.3948486	-1.1817835
H	0.8101554	-0.2496936	-2.0413062
C	0.0385638	0.0240408	-0.0670208
H	-0.3716231	-0.9773160	0.0201866
H	-0.0875492	0.6910669	0.7778190
O	1.2168155	1.6281307	-1.3850921
H	1.0670962	2.1705192	-0.5914991
C	2.5781396	-1.3854102	1.6510663
H	1.9904893	-2.1796027	1.1635659
H	1.9904919	-0.5912062	2.1385765
O	3.8027778	-1.3854093	1.6510670
