11
-0.000691266 (energy)
C	-1.2576998	0.0559621	-0.6445281
H	-1.5225948	0.7954532	-1.3908951
C	-0.0724759	0.0019376	-0.0360610
H	0.6984232	0.7269727	-0.2781610
H	0.1645355	-0.7500434	0.7075335
O	-2.2868638	-0.8084257	-0.4082054
H	-2.0055057	-1.4516670	0.2651959
C	2.7469954	-0.4947500	-1.7398770
H	2.1945735	-1.4431454	-1.8353103
H	2.7472106	0.1467929	-2.6355212
O	3.3223872	-0.1750003	-0.7071994
