11
-0.000608439 (energy)
C	-1.0252863	0.4571641	-0.8603175
H	-1.2412305	1.5034025	-1.0415170
C	-0.0590830	0.0246639	-0.0495763
H	0.5693597	0.7356919	0.4777497
H	0.1341315	-1.0293603	0.1125466
O	-1.8642687	-0.3569007	-1.5643061
H	-1.6348973	-1.2825061	-1.3718630
C	4.3076311	0.6256794	-0.6121319
H	5.0759091	-0.0394903	-1.0376077
H	4.5771626	1.6928388	-0.5643879
O	3.2262480	0.2068294	-0.2185407
