11
-0.000664132 (energy)
C	-0.0785972	0.0277624	-0.0099806
H	0.9358434	-0.3305618	0.1188373
C	-1.1652097	-0.6994461	0.2514529
H	-1.0656385	-1.7167495	0.6171759
H	-2.1686802	-0.3141622	0.1129395
O	-0.1016932	1.3117378	-0.4715720
H	-1.0283206	1.5904959	-0.5718047
C	3.7308504	-0.3050017	0.1974466
H	3.5808487	-0.3883734	-0.8907997
H	3.8548819	0.7197421	0.5825078
O	3.7579107	-1.2858837	0.9301656
