11
-0.00466393 (energy)
C	-1.2368238	0.5177312	0.3437906
H	-1.3392462	0.7416452	1.3989931
C	-2.1997426	0.7147330	-0.5572556
H	-3.1579853	1.1228776	-0.2510487
H	-2.0686588	0.4811131	-1.6074087
O	-0.0027673	0.0109931	0.0565383
H	0.0439184	-0.1744681	-0.8973042
C	2.8281368	-0.2236016	-0.6052969
H	2.8685166	0.8518737	-0.3698107
H	2.8231941	-0.9001685	0.2641792
O	2.7912093	-0.6392720	-1.7566410
