11
-0.00424945 (energy)
C	-1.3334829	0.2006026	-0.3123341
H	-1.8947004	-0.7169134	-0.4437854
C	-1.8585322	1.4200722	-0.4353133
H	-2.9091594	1.5392342	-0.6813958
H	-1.2721263	2.3210973	-0.2979654
O	-0.0274698	-0.0502903	-0.0064330
H	0.4359657	0.7981434	0.1020970
C	3.3144080	0.1092702	0.0321768
H	3.2224451	-0.4963027	-0.8835500
H	3.5311139	-0.4538002	0.9539935
O	3.1844332	1.3269752	0.0258471
