11
-0.00379588 (energy)
C	-1.2155665	-0.5581275	-0.3561776
H	-1.4234519	-1.5022843	0.1331400
C	-2.0398859	0.0294445	-1.2240273
H	-2.9858210	-0.4378232	-1.4798427
H	-1.8051886	0.9751508	-1.6985160
O	-0.0085446	-0.0500218	0.0273842
H	0.1356087	0.7938825	-0.4346074
C	2.8018674	0.0810201	0.0239706
H	2.6518658	-0.7409367	0.7420360
H	2.9258989	-0.2237554	-1.0274494
O	2.8289278	1.2550585	0.3713037
