11
-0.00372316 (energy)
C	-1.2815171	-0.5228118	-0.0187764
H	-1.3876403	-1.4409159	0.5468231
C	-2.2792315	0.0659289	-0.6789709
H	-3.2721007	-0.3730799	-0.6715048
H	-2.1434094	0.9850571	-1.2369479
O	-0.0028678	-0.0486865	0.0307651
H	0.0455148	0.7726899	-0.4882637
C	3.3516992	0.0583245	-0.1470106
H	4.3105185	0.4048847	0.2704735
H	2.7104212	-0.5105093	0.5450490
O	3.0208119	0.2899233	-1.3031310
