11
-0.00426696 (energy)
C	-0.6581001	0.0127748	1.2176665
H	-0.7125974	0.9935297	1.6750831
C	-1.1704586	-1.0924415	1.7597848
H	-1.6803287	-1.0445184	2.7170255
H	-1.1007076	-2.0610733	1.2786716
O	-0.0014735	0.0532431	0.0220927
H	0.0233854	-0.8450068	-0.3506271
C	2.9431670	-0.6513775	-0.1530565
H	2.6328514	0.0740180	-0.9219757
H	3.2180456	-0.2203935	0.8228792
O	2.9800945	-1.8563060	-0.3687474
