11
-0.00320805 (energy)
C	-0.0766607	0.0169876	-0.0297059
H	0.9127856	-0.2022687	0.3537035
C	-1.0089717	-0.9079791	-0.2602255
H	-0.7991198	-1.9547679	-0.0633264
H	-1.9912565	-0.6589041	-0.6444920
O	-0.2456323	1.3538309	-0.2453251
H	-1.1438510	1.5034314	-0.5876902
C	3.6617195	1.2704868	0.4586547
H	4.4810048	1.7226566	1.0400713
H	2.8212775	1.9420112	0.2210245
O	3.6837506	0.0996214	0.1004263
