37
-0.0115631 (energy)
C	2.2038589	-1.6922875	-1.4645724
O	1.6145327	-2.6602461	-1.0062371
O	2.6663259	-1.7251695	-2.7766433
H	3.1086345	-0.8953957	-3.0505818
N	1.8638294	-0.2443806	0.5617814
C	-0.1218849	-0.2862052	1.9371074
H	0.4161388	-0.5347670	2.8429943
H	-1.1929581	-0.1599120	2.0285882
C	0.4739400	-0.1659155	0.7293928
C	-0.3345036	0.1176304	-0.5182186
H	-0.3037356	-0.7220868	-1.2221815
H	-1.3803444	0.2827535	-0.2511987
H	0.0238351	1.0142560	-1.0410342
C	4.1217711	0.1517160	1.0935852
C	2.7852023	-0.2978841	1.7044309
C	2.5474081	-0.3987721	-0.7149758
C	4.0708848	-0.4180645	-0.3392586
H	4.1694853	1.2462861	1.0688200
H	4.9885589	-0.2142701	1.6516713
H	2.4333736	0.3782941	2.4906180
H	2.8506653	-1.3103061	2.1330649
H	2.3257096	0.4459612	-1.3878231
H	4.4395412	-1.4501658	-0.3447671
H	4.6739969	0.1556172	-1.0494661
O	2.6521947	0.9953116	-4.2758437
H	0.7000253	0.5742390	-4.6525468
C	1.7272914	0.7121659	-5.0455930
C	1.8659758	0.5265249	-6.5432988
C	3.2925051	0.8066151	-7.0333855
H	3.5581455	1.8569549	-6.8696276
H	3.3808971	0.5919050	-8.1037401
H	4.0223865	0.1971220	-6.4925299
C	0.8021991	1.3820467	-7.2731184
H	1.6177061	-0.5334995	-6.7324928
H	-0.2081742	1.1763123	-6.8994653
H	0.8153184	1.1679100	-8.3466943
H	1.0050657	2.4508547	-7.1377797
