37
-0.0106866 (energy)
C	2.3588980	0.0813142	0.8643801
O	2.5815285	1.2151000	0.4652738
O	3.3164791	-0.5812180	1.6263356
H	3.0334007	-1.4751196	1.9091965
N	0.0000000	0.0000000	0.0000000
C	-1.4907767	1.9004815	-0.0456816
H	-1.6449420	1.8527037	-1.1161179
H	-2.0231007	2.6782395	0.4865215
C	-0.6572714	1.0711613	0.6218125
C	-0.4266191	1.2234551	2.1098043
H	0.6059764	1.5157108	2.3333407
H	-1.0805947	2.0023622	2.5072557
H	-0.6432255	0.2941126	2.6530212
C	0.2175324	-1.8470919	-1.4418528
C	-0.2956831	-0.3997744	-1.3820964
C	1.1051620	-0.7540458	0.5755497
C	1.4502892	-1.8289995	-0.5143488
H	-0.5461538	-2.5285961	-1.0503058
H	0.4707112	-2.1666299	-2.4569996
H	-1.3735127	-0.3278913	-1.5615585
H	0.2132624	0.2459098	-2.1149519
H	0.8042811	-1.2412885	1.5176290
H	2.3367510	-1.5136128	-1.0763878
H	1.6663030	-2.8056346	-0.0707595
O	4.1845536	-3.2104701	2.8765262
H	4.9804152	-2.1066210	4.3859281
C	4.7266687	-3.1075275	3.9827114
C	5.0955614	-4.2689264	4.8837603
C	4.6489604	-5.6175876	4.3047250
H	3.5563018	-5.6675549	4.2399502
H	4.9944278	-6.4417288	4.9379834
H	5.0428878	-5.7632529	3.2946081
C	4.5451553	-4.0159494	6.3082711
H	6.1983013	-4.2494271	4.9520847
H	4.8648967	-3.0421067	6.6983908
H	4.9033207	-4.7891812	6.9956006
H	3.4491739	-4.0412915	6.3103680
