37
-0.0124191 (energy)
C	1.8243858	-1.4838633	-0.8212093
O	1.4716393	-1.8420933	-1.9360027
O	2.6088183	-2.3300100	-0.0428442
H	2.8554602	-1.9406809	0.8213373
N	0.8333512	0.8055978	-1.0378969
C	0.8790499	2.4470389	-2.8056615
H	-0.1938324	2.5896500	-2.8051512
H	1.4458518	3.0330675	-3.5174247
C	1.5145249	1.5824787	-1.9815873
C	3.0177944	1.4182398	-2.0271625
H	3.3036839	0.3883713	-2.2732265
H	3.4391502	2.0721561	-2.7931628
H	3.4901600	1.6810570	-1.0710809
C	-0.9658135	-0.2861901	0.0764049
C	-0.6372724	0.8162412	-0.9499264
C	1.4428424	-0.1578560	-0.1376250
C	0.3236941	-0.4061333	0.9165650
H	-1.8393444	-0.0418950	0.6872046
H	-1.1671390	-1.2320763	-0.4378709
H	-0.9896823	1.8063771	-0.6237278
H	-1.0834713	0.6118810	-1.9312095
H	2.3454548	0.2506825	0.3372704
H	0.4183134	-1.3737796	1.4192913
H	0.3696901	0.3829075	1.6752071
O	3.8915578	-3.0392842	2.5539896
H	4.1592491	-4.3463205	1.0209632
C	4.0607256	-4.1815602	2.1127196
C	4.1509812	-5.4371728	2.9565854
C	4.0853870	-5.1329865	4.4588468
H	4.9518969	-4.5395132	4.7711691
H	4.0766076	-6.0615608	5.0395751
H	3.1888807	-4.5568799	4.7060533
C	5.4151377	-6.2384015	2.5614702
H	3.2754257	-6.0475086	2.6702700
H	5.4493398	-6.4339678	1.4828685
H	5.4300513	-7.2024534	3.0800965
H	6.3234155	-5.6902797	2.8379047
