37
-0.00647042 (energy)
C	1.6963003	2.7675084	-0.1575609
O	0.9288895	3.1674010	-1.0216731
O	2.1277892	3.6405020	0.8368486
H	2.7203679	3.2167449	1.4914473
N	1.6627688	0.3957707	-0.9603504
C	-0.1247889	-1.0771897	-1.6359498
H	0.3527345	-1.3548198	-2.5667062
H	-1.0881176	-1.5264112	-1.4322377
C	0.4180543	-0.2086801	-0.7519795
C	-0.2950542	0.1487991	0.5335381
H	-0.5073312	1.2232642	0.5916099
H	-1.2476661	-0.3816386	0.5889462
H	0.2904553	-0.1286328	1.4203889
C	3.6152836	1.1552738	-2.0923857
C	2.4181975	0.1908314	-2.2085143
C	2.2974679	1.3525308	-0.0704181
C	3.7718853	1.3696885	-0.5716664
H	4.5224751	0.7528621	-2.5516036
H	3.3819144	2.1065017	-2.5827085
H	2.7367260	-0.8593471	-2.2899525
H	1.7907947	0.4158596	-3.0800079
H	2.2429578	1.0249825	0.9769019
H	4.2964680	2.2973737	-0.3221887
H	4.3119995	0.5338461	-0.1135364
O	2.1264152	-0.2043356	2.9145928
H	3.3101538	-1.7229170	3.5648590
C	2.5362587	-0.9645952	3.7989939
C	2.0629391	-0.9617716	5.2387088
C	1.0520022	0.1585564	5.5152824
H	1.5193924	1.1412250	5.3868147
H	0.6716529	0.0894619	6.5400424
H	0.2061175	0.1064263	4.8235490
C	3.2855110	-0.9140478	6.1869787
H	1.5719202	-1.9402714	5.3887829
H	4.0014901	-1.7144501	5.9644307
H	2.9630272	-1.0289578	7.2268785
H	3.8078633	0.0456450	6.0977609
