37
-0.00206621 (energy)
C	-3.3756981	-0.9498829	2.9192970
O	-3.6765500	-1.7121546	2.0004494
O	-3.7519291	-1.1864496	4.2297868
H	-4.2769526	-2.0143232	4.2914642
N	-1.8665840	0.4945881	1.5662499
C	-0.0386090	-0.0059690	0.0718053
H	-0.4489460	0.5692227	-0.7481811
H	0.9086569	-0.4981506	-0.1067919
C	-0.6519234	-0.1304899	1.2719866
C	-0.0338747	-0.9493014	2.3843571
H	-0.6916706	-1.7685912	2.7007408
H	0.9051170	-1.3902444	2.0438264
H	0.1850782	-0.3381009	3.2696785
C	-3.9179343	1.6641116	1.2460467
C	-2.5893987	1.2877479	0.5574934
C	-2.6056746	0.3639717	2.8138192
C	-3.6005852	1.5580698	2.7533272
H	-4.2661428	2.6613329	0.9621107
H	-4.6987179	0.9451878	0.9746541
H	-1.9983911	2.1740049	0.2814344
H	-2.7507056	0.7000063	-0.3553217
H	-1.9595617	0.4383050	3.6929281
H	-4.4832851	1.4003391	3.3785115
H	-3.0850563	2.4573462	3.1078161
O	0.6873832	4.4361497	-0.1143911
H	1.7895312	4.1518151	1.5692349
C	1.6842068	4.0044629	0.4756267
C	2.8296014	3.2588931	-0.1793659
C	2.5870136	3.0203215	-1.6753124
H	1.7217920	2.3653278	-1.8268707
H	3.4611545	2.5484030	-2.1365533
H	2.3805239	3.9597929	-2.1963586
C	3.1098883	1.9505341	0.5989731
H	3.7141111	3.9091427	-0.0532633
H	3.2675082	2.1413651	1.6674004
H	4.0077242	1.4616520	0.2072121
H	2.2712499	1.2518623	0.4971622
