37
-0.00408517 (energy)
C	0.8835286	-0.7738774	-2.1742987
O	-0.1260178	-1.0041175	-2.8403744
O	2.0749809	-1.4468343	-2.3803747
H	1.9757380	-2.1063840	-3.1014666
N	-0.0443614	1.2051117	-0.9838027
C	-1.1791708	3.1894195	-1.7584927
H	-2.0231804	3.0609641	-1.0931005
H	-1.2002475	4.0552443	-2.4076119
C	-0.1347963	2.3298207	-1.8081600
C	1.0196707	2.5566848	-2.7597604
H	1.1439204	1.7181499	-3.4565036
H	0.8420538	3.4566402	-3.3519005
H	1.9700544	2.6892025	-2.2263652
C	-0.6831260	-0.5064878	0.5461517
C	-1.1198958	0.8515689	-0.0417908
C	1.0211336	0.2135083	-1.0182667
C	0.8464476	-0.5294589	0.3370418
H	-0.9620746	-0.6137421	1.5982939
H	-1.1512040	-1.3252821	-0.0111698
H	-1.2133548	1.6288328	0.7315629
H	-2.0842096	0.7842598	-0.5616561
H	2.0134054	0.6675329	-1.0895280
H	1.2730777	-1.5357582	0.3214896
H	1.3556616	0.0473054	1.1168973
O	2.8159636	2.3396547	1.0005113
H	0.8301056	2.6836256	0.7393124
C	1.8428906	3.0975232	0.9174699
C	1.9009312	4.6068825	1.0411000
C	3.3142555	5.1090522	1.3635304
H	3.6374701	4.7488330	2.3465714
H	3.3411044	6.2039397	1.3720799
H	4.0390276	4.7467290	0.6285741
C	0.8458162	5.0845531	2.0681046
H	1.5933700	4.9949233	0.0532163
H	-0.1542915	4.7044554	1.8270492
H	0.7974387	6.1782137	2.0806739
H	1.1059313	4.7447690	3.0774157
