37
-0.0120399 (energy)
C	-0.4784841	-0.0919307	0.0555810
O	-0.2876593	0.6118210	-0.9364727
O	0.5572254	-0.5298000	0.8621001
H	1.4190194	-0.2071291	0.5185553
N	-2.9618656	0.0655917	0.0039919
C	-4.4732856	1.9390933	-0.1721217
H	-5.0141355	1.5237908	-1.0127196
H	-4.8063730	2.9027302	0.1910713
C	-3.4259673	1.3169749	0.4179529
C	-2.7037817	1.9442922	1.5904397
H	-1.6403385	2.1065916	1.3741588
H	-3.1467631	2.9144982	1.8240315
H	-2.7682386	1.3211797	2.4920364
C	-2.6655241	-1.8801699	-1.3393423
C	-3.5539268	-0.6329837	-1.1495283
C	-1.8130969	-0.6370069	0.5575535
C	-2.0176585	-2.0916304	0.0460834
H	-3.2370945	-2.7520648	-1.6701378
H	-1.8924937	-1.6802944	-2.0894104
H	-4.6001938	-0.8966554	-0.9333050
H	-3.5519727	0.0129496	-2.0369165
H	-1.7907902	-0.6069673	1.6504486
H	-1.0842167	-2.6595057	0.0129543
H	-2.7074978	-2.6043277	0.7253431
O	2.7128470	1.2031667	-0.7553010
H	2.1456328	0.2070379	-2.4334452
C	2.6479174	1.0872530	-1.9843167
C	3.2135867	2.0760331	-2.9838919
C	3.8251150	3.3062584	-2.3011034
H	3.0547858	3.8761720	-1.7697028
H	4.2917794	3.9650680	-3.0412162
H	4.5809019	3.0146547	-1.5659252
C	2.1258904	2.4447339	-4.0217511
H	4.0066318	1.5275089	-3.5235996
H	1.6928075	1.5517101	-4.4883827
H	2.5541986	3.0661435	-4.8148425
H	1.3145410	3.0100678	-3.5485367
