37
-0.00247987 (energy)
C	2.3587524	0.7876158	-0.1029897
O	2.1383270	1.9048839	0.3649588
O	3.6413643	0.3222964	-0.3338176
H	4.3033108	1.0030210	-0.0822841
N	0.0000000	0.0000000	0.0000000
C	-1.6481667	0.0146877	1.7631635
H	-2.3999710	0.5103379	1.1625631
H	-1.9266530	-0.2377563	2.7781363
C	-0.4106492	-0.2860734	1.3047003
C	0.6033833	-0.9788857	2.1887555
H	1.5119416	-0.3768151	2.3154945
H	0.1776431	-1.1498007	3.1795283
H	0.9042918	-1.9528920	1.7812431
C	0.0042156	0.9363836	-2.1912374
C	-0.8791507	0.7063866	-0.9472409
C	1.3276835	-0.2483222	-0.5434495
C	1.0976822	-0.1478075	-2.0784977
H	-0.5624684	0.8620752	-3.1237966
H	0.4572937	1.9330073	-2.1513654
H	-1.7622927	0.0897399	-1.1725339
H	-1.2359365	1.6502212	-0.5153016
H	1.7141699	-1.2341471	-0.2703244
H	2.0134549	0.0927912	-2.6247269
H	0.7275148	-1.1142648	-2.4377564
O	0.3518376	3.3876057	6.7820552
H	-0.4760737	4.3109933	5.1720580
C	0.1189937	3.4648547	5.5704662
C	0.5889014	2.4705262	4.5277217
C	1.4700131	1.3691531	5.1312454
H	2.3975934	1.7926719	5.5322711
H	1.7315143	0.6255148	4.3708562
H	0.9593400	0.8625542	5.9554444
C	1.2819079	3.2242943	3.3667950
H	-0.3316465	2.0166484	4.1182459
H	0.6410763	4.0150722	2.9583804
H	1.5215960	2.5306288	2.5544099
H	2.2169459	3.6844499	3.7070639
