37
-0.00182807 (energy)
C	-2.3587524	0.7048924	0.3661591
O	-2.1383269	1.9148287	0.3085594
O	-3.6413643	0.1886874	0.4239179
H	-4.3033108	0.9143889	0.4203751
N	0.0000000	0.0000000	0.0000000
C	1.6481667	0.6168391	-1.6518083
H	2.3999710	0.8771805	-0.9179063
H	1.9266529	0.7267603	-2.6919118
C	0.4106492	0.1774126	-1.3238601
C	-0.6033834	-0.1712534	-2.3915560
H	-1.5119416	0.4378552	-2.3047315
H	-0.1776432	0.0070032	-3.3810343
H	-0.9042919	-1.2258974	-2.3417493
C	-0.0042156	0.1304657	2.3793517
C	0.8791507	0.3398109	1.1317136
C	-1.3276835	-0.4192171	0.4257444
C	-1.0976822	-0.8497815	1.9025959
H	0.5624684	-0.2583153	3.2302557
H	-0.4572936	1.0806227	2.6827495
H	1.7622927	-0.3167022	1.1325143
H	1.2359366	1.3744573	1.0486338
H	-1.7141700	-1.2521752	-0.1680811
H	-2.0134548	-0.8105139	2.4981731
H	-0.7275148	-1.8808280	1.9096410
O	4.0697758	2.2687734	-0.1692367
H	4.1190726	2.3350016	-2.1998416
C	4.4178449	2.7905820	-1.2344575
C	5.2514420	4.0503942	-1.3561426
C	5.5654697	4.6729944	0.0103774
H	4.6459084	5.0087815	0.5025655
H	6.2300419	5.5361052	-0.1034482
H	6.0446384	3.9472070	0.6739763
C	4.5567324	5.0413045	-2.3213632
H	6.1945257	3.7337000	-1.8371642
H	4.3294161	4.5733411	-3.2868346
H	5.2037497	5.9044126	-2.5084588
H	3.6178229	5.4081316	-1.8904239
