37
-0.00241766 (energy)
C	0.0006879	-0.2606167	0.4154106
O	1.1226550	-0.2555724	-0.0915565
O	-1.0730123	0.3975891	-0.1580262
H	-0.7960559	0.8492118	-0.9851662
N	0.5327215	-1.9211033	2.1914690
C	1.5891957	-4.0903619	2.1315228
H	2.3211328	-3.8412254	2.8890179
H	1.6355070	-5.0913483	1.7224581
C	0.6517215	-3.2197989	1.6895305
C	-0.3474280	-3.6204369	0.6260484
H	-0.2772767	-2.9785371	-0.2611231
H	-0.1598860	-4.6479172	0.3079139
H	-1.3804670	-3.5672691	0.9938856
C	1.0690268	0.0857117	3.3591265
C	1.4677216	-1.3964778	3.2012689
C	-0.4156873	-0.9180627	1.7286784
C	-0.3967949	0.1316724	2.8763177
H	1.1807275	0.4396055	4.3880100
H	1.6962398	0.7140004	2.7172655
H	1.3604965	-1.9583810	4.1413314
H	2.5061519	-1.5099805	2.8644141
H	-1.4208261	-1.3253915	1.5886818
H	-0.7195012	1.1218203	2.5441111
H	-1.0782924	-0.2047343	3.6653184
O	5.2879758	-2.2590477	-4.9238478
H	3.4077148	-3.0054537	-4.7297626
C	4.1595466	-2.2524305	-4.4191347
C	3.6805979	-1.2706465	-3.3686459
C	4.7891594	-0.3066254	-2.9266323
H	5.6004720	-0.8516656	-2.4313565
H	4.3955923	0.4369990	-2.2254188
H	5.2228590	0.2159110	-3.7843000
C	3.0505435	-2.0435497	-2.1846580
H	2.8695611	-0.6958881	-3.8513009
H	2.2702416	-2.7359379	-2.5230733
H	2.5969614	-1.3445911	-1.4745088
H	3.8127615	-2.6229571	-1.6506797
