37
-0.00393778 (energy)
C	-1.5980484	1.7564202	-0.6843341
O	-2.3122013	1.1997769	-1.5185912
O	-1.3551929	3.1185083	-0.7095191
H	-1.8175844	3.5350453	-1.4694661
N	-1.3240413	-0.2348019	0.7835259
C	-2.9063725	-1.7909487	1.7322353
H	-2.3939014	-2.6648489	1.3510904
H	-3.8023687	-1.9684599	2.3128668
C	-2.4814481	-0.5250557	1.5107644
C	-3.2380170	0.6618384	2.0663636
H	-3.5787803	1.3362702	1.2707179
H	-4.1199628	0.3187423	2.6109314
H	-2.6240070	1.2503513	2.7605860
C	0.5573915	-0.5412727	-0.6463832
C	-0.5199707	-1.2983782	0.1578829
C	-0.8369176	1.0995880	0.4643725
C	0.6372227	0.8381740	0.0425316
H	1.5187482	-1.0629126	-0.6484064
H	0.2361457	-0.4238231	-1.6871210
H	-0.0823265	-1.9448404	0.9334498
H	-1.1458427	-1.9302815	-0.4852921
H	-0.8834842	1.7781527	1.3206443
H	1.0358598	1.6279385	-0.5995385
H	1.2530699	0.7875735	0.9471323
O	2.1052122	0.3091458	3.0251950
H	3.2638348	-0.2224210	4.6079785
C	2.2561278	0.0269532	4.2192317
C	1.1476282	-0.0134087	5.2519067
C	-0.2049148	0.4158697	4.6688383
H	-0.1740215	1.4644256	4.3523397
H	-0.9986025	0.3047388	5.4153518
H	-0.4639191	-0.1827448	3.7905952
C	1.5597282	0.8212685	6.4887021
H	1.0859658	-1.0680067	5.5761051
H	2.5342802	0.5075517	6.8819292
H	0.8200807	0.7053275	7.2874956
H	1.6208638	1.8859750	6.2347640
