37
-0.000139433 (energy)
C	2.4537830	1.7416640	-1.2562920
O	2.1216266	1.5248922	-2.4218533
O	2.8253683	2.9994122	-0.8148277
H	2.7882700	3.6464653	-1.5529161
N	1.8472430	-0.5138532	-0.3964026
C	-0.1448612	-1.8593666	-0.6121083
H	0.3872999	-2.7278307	-0.9784065
H	-1.2176602	-1.9563521	-0.5065215
C	0.4649820	-0.6929465	-0.2964339
C	-0.3284465	0.4917508	0.2102891
H	-0.2141008	1.3671884	-0.4412965
H	-1.3903993	0.2404833	0.2451953
H	-0.0212042	0.7879308	1.2218127
C	4.1203555	-0.9184537	-0.9859887
C	2.7267123	-1.5765688	-0.9124672
C	2.5625509	0.7244794	-0.1232515
C	4.0361421	0.2481860	0.0218355
H	4.9250109	-1.6195031	-0.7464502
H	4.3004837	-0.5315305	-1.9949350
H	2.7106325	-2.4416110	-0.2324721
H	2.3819947	-1.9219393	-1.8956154
H	2.2183946	1.2135254	0.7922867
H	4.7560581	1.0480168	-0.1702196
H	4.1857111	-0.1096198	1.0464011
O	-6.9166973	-3.9806398	-0.4522232
H	-6.9719133	-2.7400054	1.1564875
C	-6.4032662	-3.1376598	0.2920246
C	-5.0080972	-2.5679475	0.1315570
C	-4.2475574	-3.2142369	-1.0335655
H	-4.0794921	-4.2798397	-0.8416286
H	-3.2742286	-2.7317004	-1.1727140
H	-4.8137985	-3.1358481	-1.9662818
C	-4.2472307	-2.6717801	1.4756092
H	-5.1519204	-1.4928352	-0.0794697
H	-4.8131113	-2.2158409	2.2970081
H	-3.2822495	-2.1594891	1.4051751
H	-4.0568166	-3.7202401	1.7330894
