37
-0.000804605 (energy)
C	2.1736604	2.9006510	-2.7715220
O	2.7706331	1.8608708	-3.0514002
O	2.0789881	3.9602801	-3.6564629
H	2.5512539	3.7520472	-4.4921856
N	1.2183263	2.0747832	-0.6267755
C	0.0117218	0.0668864	-0.0455093
H	0.6777642	-0.1912798	0.7677172
H	-0.8173333	-0.6051247	-0.2258458
C	0.1775627	1.1629932	-0.8221312
C	-0.7836662	1.4757672	-1.9481934
H	-0.2737498	1.5184325	-2.9188607
H	-1.5495614	0.7000450	-2.0094872
H	-1.2922123	2.4369866	-1.7974002
C	3.2554811	3.0065704	0.1857063
C	2.2425649	1.8645358	0.4104730
C	1.4861505	3.2436612	-1.4524504
C	2.4417502	4.0861727	-0.5600489
H	3.6798018	3.3772533	1.1231844
H	4.0819993	2.6575164	-0.4429090
H	1.7816172	1.9079528	1.4087675
H	2.7063450	0.8755970	0.3027715
H	0.5783301	3.8048672	-1.6906302
H	3.0573912	4.7775348	-1.1413388
H	1.8360691	4.6715944	0.1403526
O	8.1759233	-2.4067865	-1.0282052
H	7.6997592	-0.5821658	-1.7859648
C	7.4346167	-1.4210705	-1.1116333
C	6.1387645	-1.2381671	-0.3473481
C	5.7903125	-2.4642222	0.5064617
H	5.6036745	-3.3371975	-0.1288929
H	4.8920303	-2.2746434	1.1037235
H	6.6118328	-2.7213964	1.1815168
C	5.0071046	-0.8500488	-1.3296338
H	6.3078785	-0.3697623	0.3147375
H	5.2810237	0.0197316	-1.9389348
H	4.0948803	-0.6017983	-0.7775376
H	4.7786575	-1.6821362	-2.0058472
