37
-2.5092e-05 (energy)
C	0.4921555	2.3963077	0.4584219
O	-0.5005681	2.5963774	1.1586526
O	1.4956050	3.3378048	0.3115569
H	1.2838363	4.1474088	0.8258756
N	0.0000000	0.0000000	0.0000000
C	-0.5714589	-1.8512680	1.4393248
H	-1.4604061	-2.1129886	0.8799726
H	-0.3427651	-2.4639399	2.3017544
C	0.2348641	-0.8150026	1.1105509
C	1.4657057	-0.4920095	1.9293970
H	1.4255573	0.5241641	2.3414760
H	1.5475998	-1.1869850	2.7674900
H	2.3855760	-0.5737894	1.3357210
C	-1.1260308	0.9915196	-1.8512961
C	-1.1844799	-0.1855753	-0.8554077
C	0.7939020	1.1588131	-0.3829055
C	0.3623292	1.4021263	-1.8573275
H	-1.4862393	0.7136349	-2.8459564
H	-1.7434846	1.8209418	-1.4894429
H	-1.1340127	-1.1614203	-1.3615000
H	-2.1028830	-0.1714384	-0.2545522
H	1.8689978	0.9700514	-0.3168917
H	0.5328725	2.4326929	-2.1794159
H	0.9474798	0.7390622	-2.5039148
O	6.5581145	-3.0971130	-3.0345422
H	6.9203486	-3.2553975	-1.0410766
C	6.2347703	-2.9376120	-1.8521127
C	4.9329362	-2.3216802	-1.3802287
C	4.0650442	-1.8334585	-2.5472867
H	4.5641421	-1.0205103	-3.0863708
H	3.1011959	-1.4634290	-2.1817088
H	3.8816593	-2.6375158	-3.2660324
C	5.2300616	-1.2081124	-0.3468562
H	4.4021659	-3.1298100	-0.8451654
H	5.8618182	-1.5739355	0.4715902
H	4.2967135	-0.8356554	0.0875731
H	5.7431087	-0.3644275	-0.8230918
