37
-0.00123683 (energy)
C	2.1736604	-0.9498829	-3.8977985
O	2.7706331	-1.7121546	-3.1372615
O	2.0789881	-1.1864496	-5.2579346
H	2.5512539	-2.0143232	-5.4954610
N	1.2183263	0.4945881	-2.1102027
C	0.0117218	-0.0059690	-0.0806799
H	0.6777642	0.5692227	0.5495117
H	-0.8173333	-0.4981506	0.4111305
C	0.1775627	-0.1304899	-1.4182473
C	-0.7836662	-0.9493014	-2.2521486
H	-0.2737498	-1.7685912	-2.7744315
H	-1.5495614	-1.3902444	-1.6110004
H	-1.2922123	-0.3381009	-3.0091924
C	3.2554811	1.6641116	-2.5109131
C	2.2425649	1.2877479	-1.4094988
C	1.4861505	0.3639717	-3.5353182
C	2.4417502	1.5580698	-3.8187538
H	3.6798018	2.6613329	-2.3631948
H	4.0819993	0.9451878	-2.5229312
H	1.7816172	2.1740049	-0.9479518
H	2.7063450	0.7000063	-0.6069034
H	0.5783301	0.4383050	-4.1404268
H	3.0573913	1.4003391	-4.7081359
H	1.8360691	2.4573462	-3.9755431
O	3.5605708	0.2708263	1.4816191
H	4.6318896	-0.7686574	0.1025170
C	4.5921824	-0.2964310	1.1046200
C	5.8672087	-0.4152492	1.9151807
C	5.7735111	0.3237058	3.2563695
H	5.6591927	1.4016549	3.0965195
H	6.6780332	0.1578161	3.8512586
H	4.9078906	-0.0143545	3.8335610
C	7.0714970	0.0460957	1.0590114
H	5.9962526	-1.4964225	2.1035840
H	7.1128495	-0.4844155	0.1000301
H	8.0093507	-0.1440891	1.5908495
H	7.0106859	1.1209462	0.8520803
