37
-0.000504339 (energy)
C	-0.8835285	2.0068840	1.1396833
O	0.1260179	2.6228597	1.4820883
O	-2.0749808	2.0929716	1.8382012
H	-1.9757378	2.6885789	2.6129471
N	0.0443614	1.1781219	-1.0159679
C	1.1791710	2.2856138	-2.8356062
H	2.0231805	1.6080244	-2.8246463
H	1.2002477	3.0752203	-3.5755588
C	0.1347964	2.1852589	-1.9804420
C	-1.0196705	3.1617969	-2.0386159
H	-1.1439202	3.7023451	-1.0918321
H	-0.8420536	3.9012166	-2.8220749
H	-1.9700542	2.6595167	-2.2617435
C	0.6831260	-0.6258051	0.4039549
C	1.1198958	0.1890292	-0.8313747
C	-1.0211336	1.0398723	-0.0334445
C	-0.8464476	-0.4238609	0.4628885
H	0.9620746	-1.6805874	0.3268773
H	1.1512040	-0.2191326	1.3070877
H	1.2133548	-0.4376052	-1.7311217
H	2.0842096	0.6893084	-0.6748146
H	-2.0134053	1.1888916	-0.4681971
H	-1.2730777	-0.5832869	1.4566006
H	-1.3556616	-1.0917146	-0.2405338
O	1.8865944	0.9058372	6.7607840
H	1.2910938	2.5408364	5.7108653
C	1.6122861	1.4799304	5.7009239
C	1.6748903	0.8467489	4.3254311
C	2.1992983	-0.5942087	4.3729568
H	3.2371290	-0.6163904	4.7236854
H	2.1622647	-1.0503180	3.3778862
H	1.6090109	-1.2064888	5.0610027
C	2.4941679	1.7521389	3.3739962
H	0.6335615	0.8430652	3.9556953
H	2.1114982	2.7798888	3.3644314
H	2.4489400	1.3654306	2.3507647
H	3.5467191	1.7826959	3.6789952
