37
-0.00165932 (energy)
C	0.4663698	1.6455861	1.7837123
O	1.5914346	1.3421729	2.1812306
O	-0.4698081	2.2502041	2.6040202
H	-0.1032273	2.3779429	3.5063115
N	0.8931614	1.1185076	-0.6110102
C	2.6666491	1.7391104	-2.1259386
H	2.8830453	0.7185435	-2.4144095
H	3.2652259	2.5120674	-2.5903691
C	1.7076323	2.0704213	-1.2300507
C	1.4479229	3.5148618	-0.8613408
H	1.5892421	3.6928735	0.2121444
H	2.1395033	4.1660922	-1.3995907
H	0.4268375	3.8258418	-1.1181999
C	0.0820673	-1.0005016	0.1171932
C	1.0703468	-0.3230959	-0.8550143
C	-0.1202384	1.3977132	0.3963675
C	-0.9683970	0.0938980	0.4047071
H	-0.3633430	-1.9056440	-0.3054721
H	0.5972618	-1.2796889	1.0428051
H	0.8456958	-0.5571834	-1.9065297
H	2.1082668	-0.6242160	-0.6633369
H	-0.7375035	2.2633632	0.1405284
H	-1.5070519	-0.0497855	1.3449728
H	-1.7027285	0.1526428	-0.4061176
O	1.2642630	-2.1044610	7.2955766
H	3.0472325	-2.9644197	6.8355075
C	2.2303941	-2.2743488	6.5433397
C	2.4166363	-1.6008792	5.1985085
C	1.2184213	-0.7212501	4.8188315
H	0.3173070	-1.3308868	4.6887110
H	1.4129230	-0.1896935	3.8811805
H	1.0051871	0.0138955	5.6003848
C	2.7421183	-2.6671760	4.1246147
H	3.3138814	-0.9654980	5.3095298
H	3.5925576	-3.2931089	4.4208552
H	2.9931571	-2.1839273	3.1748559
H	1.8793705	-3.3218462	3.9546286
