37
-0.000600116 (energy)
C	-4.2160343	1.3932444	1.0506355
O	-3.5707148	2.3557895	1.4664729
O	-5.5390672	1.5028764	0.6601722
H	-5.8549932	2.4257866	0.7753067
N	-2.2897041	-0.1797265	0.9522843
C	-0.0814897	0.0047655	-0.0043590
H	0.4234709	-0.2739709	0.9115670
H	0.5468129	0.2172284	-0.8596648
C	-1.4275344	0.0981964	-0.1117345
C	-2.0818513	0.4943361	-1.4173942
H	-2.6847455	1.4049497	-1.3109468
H	-1.3174472	0.6887935	-2.1723579
H	-2.7390857	-0.2962569	-1.8024997
C	-3.0380750	-0.6163549	3.1721154
C	-1.7775026	-0.5384490	2.2857463
C	-3.7396761	-0.0514169	0.9229153
C	-4.1847437	-0.8684666	2.1693989
H	-2.9662834	-1.4017417	3.9299627
H	-3.1934339	0.3368901	3.6891416
H	-1.2429248	-1.4991046	2.2376088
H	-1.0676350	0.2177268	2.6448808
H	-4.1779504	-0.4629812	0.0094876
H	-5.1675191	-0.5657068	2.5400505
H	-4.2339757	-1.9268298	1.8908781
O	3.3002504	-0.4577537	-0.4189969
H	1.7314622	-1.7369586	-0.5998588
C	2.8274884	-1.5773658	-0.6450420
C	3.6363688	-2.8105073	-0.9941738
C	5.1350474	-2.5062555	-1.1167079
H	5.3231825	-1.8198428	-1.9497973
H	5.7014227	-3.4267197	-1.2942952
H	5.5165653	-2.0300067	-0.2087626
C	3.0524775	-3.4712745	-2.2664288
H	3.4751130	-3.5145123	-0.1578381
H	1.9785650	-3.6684327	-2.1632877
H	3.5535980	-4.4247907	-2.4620734
H	3.1985442	-2.8255969	-3.1402634
