37
0.000115626 (energy)
C	0.3113537	-3.1769531	0.6653887
O	1.3617556	-3.2918793	0.0334877
O	0.1388411	-3.7328704	1.9208138
H	0.9497007	-4.2134691	2.1971468
N	-0.7532323	-1.5649440	-0.9039239
C	0.0198221	0.4932172	-1.8998025
H	-0.2054032	0.1795915	-2.9109959
H	0.4415684	1.4829179	-1.7811642
C	-0.1965032	-0.2863528	-0.8146439
C	0.1387461	0.2018763	0.5778520
H	0.8711351	-0.4487257	1.0721730
H	0.5668909	1.2049779	0.5270919
H	-0.7503227	0.2495942	1.2201760
C	-1.5298265	-3.6072397	-1.8548620
C	-1.0877690	-2.1707698	-2.2040060
C	-0.9663842	-2.4754571	0.2119958
C	-1.9623284	-3.5157875	-0.3755282
H	-2.3347395	-3.9644356	-2.5035879
H	-0.6842065	-4.2960898	-1.9575302
H	-1.8893314	-1.5959647	-2.6919063
H	-0.2176245	-2.1587708	-2.8728828
H	-1.3945144	-1.9748465	1.0848722
H	-1.9290840	-4.4724545	0.1522753
H	-2.9768834	-3.1114813	-0.2898246
O	3.4813772	-3.6010684	-5.4060631
H	2.6637933	-1.8432861	-6.0159243
C	3.2785571	-2.3890073	-5.2722586
C	3.8123384	-1.5361067	-4.1389199
C	4.5876522	-2.3632257	-3.1052934
H	3.9249892	-3.0809716	-2.6089934
H	5.0244931	-1.7120821	-2.3406008
H	5.3911472	-2.9344963	-3.5794022
C	2.6540755	-0.7239174	-3.5104686
H	4.4983372	-0.8116443	-4.6139394
H	2.1050575	-0.1504925	-4.2671459
H	3.0443633	-0.0185731	-2.7696877
H	1.9442659	-1.3889534	-3.0047815
