37
-0.0107922 (energy)
C	-0.3127573	0.1872845	0.3280167
O	-0.9205172	-0.2224390	-0.6612283
O	1.0640621	0.1023913	0.4378272
H	1.4457877	-0.3247201	-0.3601012
N	-2.2809296	1.2628341	1.4069742
C	-3.9570035	2.7927980	0.5851461
H	-4.7877561	2.1780616	0.9069362
H	-4.2046384	3.7250140	0.0941240
C	-2.6615222	2.4446473	0.7657405
C	-1.5380005	3.3418959	0.2940960
H	-0.8896753	2.8352631	-0.4318706
H	-1.9495454	4.2292165	-0.1910744
H	-0.9058035	3.6783193	1.1262298
C	-2.4375549	-0.9060957	2.3814307
C	-3.2776481	0.2862724	1.8781775
C	-0.9120942	0.8019256	1.5902715
C	-1.0579435	-0.2863516	2.6919780
H	-2.8835284	-1.3904604	3.2548250
H	-2.3423794	-1.6588576	1.5912285
H	-3.8905641	0.7298665	2.6772445
H	-3.9541599	-0.0014451	1.0631671
H	-0.2414769	1.6013069	1.9175048
H	-0.2380511	-1.0091823	2.6783478
H	-1.0633882	0.2082214	3.6694740
O	2.1862841	-0.2069616	-2.5329920
H	3.2565066	1.0421344	-3.7265395
C	2.2866369	0.5548853	-3.5013154
C	1.1620484	0.9044737	-4.4552060
C	-0.1289360	0.1396087	-4.1358911
H	0.0149248	-0.9373804	-4.2772908
H	-0.9427077	0.4673398	-4.7915897
H	-0.4326948	0.2947133	-3.0964650
C	1.6360623	0.6983591	-5.9143164
H	0.9868317	1.9870046	-4.3191557
H	2.5662749	1.2424042	-6.1180733
H	0.8746338	1.0573874	-6.6142571
H	1.8105702	-0.3644913	-6.1185660
