37
-0.00723005 (energy)
C	-0.4782452	0.0954342	-0.0515886
O	0.1022348	1.0606859	0.4455867
O	0.1845721	-1.0698135	-0.3947620
H	1.1425520	-0.9914572	-0.1923685
N	-2.7768534	1.0039770	0.2410014
C	-3.9213636	1.9639428	2.1367800
H	-4.2080144	2.8633477	1.6071557
H	-4.2383673	1.8864886	3.1687500
C	-3.1996267	0.9676098	1.5724119
C	-2.8244422	-0.2686882	2.3601989
H	-1.7366358	-0.4010708	2.4166070
H	-3.2022910	-0.1877209	3.3813610
H	-3.2476700	-1.1801044	1.9180458
C	-2.2942549	1.8537634	-1.9323175
C	-3.0441924	2.1678996	-0.6209540
C	-1.9574636	-0.0049469	-0.4150609
C	-2.1554640	0.3160642	-1.9240753
H	-2.8270320	2.2198984	-2.8145946
H	-1.3033957	2.3208480	-1.9197348
H	-4.1276982	2.2790065	-0.7778619
H	-2.6815951	3.0906679	-0.1500893
H	-2.2842381	-1.0231519	-0.1863760
H	-1.3340969	-0.0546400	-2.5428063
H	-3.0819849	-0.1612269	-2.2615403
O	2.9358646	-0.3199963	-1.4663716
H	2.1449001	1.4735354	-2.0028343
C	2.5575641	0.4937173	-2.3166013
C	2.6046996	0.2734338	-3.8152914
C	3.2560373	-1.0654579	-4.1850876
H	4.3084981	-1.0803665	-3.8806221
H	3.2080726	-1.2311148	-5.2666743
H	2.7584443	-1.8989967	-3.6807586
C	3.2905980	1.4825081	-4.4963627
H	1.5500611	0.2685000	-4.1451354
H	2.8186988	2.4299001	-4.2090354
H	3.2268998	1.3901560	-5.5854015
H	4.3506836	1.5320849	-4.2214396
