37
-0.00722937 (energy)
C	-0.4210108	-0.1761291	-0.1794882
O	-0.6428573	0.6739108	0.6831053
O	0.8626691	-0.5401810	-0.5462704
H	1.5243320	-0.0252491	-0.0345324
N	-2.7896331	-0.8935960	-0.4431701
C	-4.4856632	-1.5352774	1.1496707
H	-5.2154776	-0.8293685	0.7746196
H	-4.7946590	-2.1583348	1.9789917
C	-3.2390855	-1.6580713	0.6367761
C	-2.2570051	-2.6614304	1.2012169
H	-1.3461923	-2.1751421	1.5726647
H	-2.7116891	-3.1970246	2.0369793
H	-1.9549170	-3.4048403	0.4519607
C	-2.7152916	0.8238126	-2.0934230
C	-3.6350051	0.1442047	-1.0575550
C	-1.4500439	-0.9367614	-1.0118373
C	-1.6364937	-0.2401779	-2.3900189
H	-3.2567154	1.1310272	-2.9927553
H	-2.2533289	1.7163654	-1.6574548
H	-4.5178379	-0.3175281	-1.5248439
H	-3.9939297	0.8514357	-0.2988133
H	-1.0813467	-1.9585616	-1.1375610
H	-0.7035640	0.1760601	-2.7789683
H	-2.0064465	-0.9819233	-3.1063143
O	2.5901956	-0.9669003	1.7690203
H	4.2715755	-0.7171081	2.8829045
C	3.3001876	-1.2331144	2.7453260
C	2.9573533	-2.2422792	3.8227626
C	1.5695751	-2.8628857	3.6165087
H	0.7878901	-2.1004632	3.7074787
H	1.3807282	-3.6406095	4.3642086
H	1.4793977	-3.3056576	2.6202384
C	3.1212750	-1.5893277	5.2166633
H	3.7253132	-3.0325750	3.7405806
H	4.1145621	-1.1407304	5.3388875
H	2.9900525	-2.3388098	6.0038412
H	2.3712722	-0.8040791	5.3673364
