37
-0.00661671 (energy)
C	0.0006879	-0.0673768	-0.4857442
O	1.1226550	0.2546312	-0.0941425
O	-1.0730123	-0.2029936	0.3766205
H	-0.7960559	-0.0172813	1.3005439
N	0.5327215	0.0630012	-2.9136240
C	1.5891957	1.7632824	-4.2620752
H	2.3211328	1.0855243	-4.6822082
H	1.6355070	2.7930242	-4.5921352
C	0.6517215	1.3804997	-3.3639023
C	-0.3474280	2.3709993	-2.8067530
H	-0.2772767	2.4495385	-1.7145349
H	-0.1598860	3.3625877	-3.2234995
H	-1.3804670	2.0938292	-3.0543570
C	1.0690268	-2.2248639	-2.5181456
C	1.4677216	-0.9879721	-3.3499528
C	-0.4156873	-0.4078963	-1.9143638
C	-0.3967949	-1.9497284	-2.1187497
H	1.1807275	-3.1573159	-3.0788375
H	1.6962398	-2.2935807	-1.6225954
H	1.3604965	-1.1617898	-4.4312669
H	2.5061519	-0.6844979	-3.1648652
H	-1.4208261	-0.0058763	-2.0689461
H	-0.7195012	-2.4946874	-1.2278099
H	-1.0782924	-2.1991859	-2.9393974
O	-2.4052073	0.4222173	2.8786667
H	-3.1724440	-1.3794408	3.4223105
C	-3.2830841	-0.4469227	2.8332829
C	-4.5548096	-0.3589457	2.0136533
C	-4.6840285	0.9848825	1.2849220
H	-4.7730929	1.8072083	2.0035616
H	-5.5714392	0.9908933	0.6430195
H	-3.8036519	1.1850696	0.6671877
C	-5.7748293	-0.6733053	2.9130449
H	-4.4811719	-1.1714966	1.2683866
H	-5.6569090	-1.6309335	3.4344280
H	-6.6865247	-0.7275282	2.3093370
H	-5.9129811	0.1108231	3.6666222
