37
-0.00532396 (energy)
C	-0.4784841	0.0387729	0.1001856
O	-0.2876592	-0.8160040	-0.7651429
O	0.5572253	0.7570040	0.6714533
H	1.4190193	0.4747098	0.2940286
N	-2.9618656	0.0153209	-0.0639022
C	-4.4732856	0.1672129	-1.9395230
H	-5.0141354	-0.7327311	-1.6764982
H	-4.8063729	0.6922219	-2.8254523
C	-3.4259672	0.6402932	-1.2243905
C	-2.7037818	1.9039000	-1.6385772
H	-1.6403386	1.7190879	-1.8359676
H	-3.1467632	2.3024174	-2.5534808
H	-2.7682388	2.6835970	-0.8683705
C	-2.6655240	-1.6454831	1.6190314
C	-3.5539268	-1.2419812	0.4237536
C	-1.8130970	0.4384677	0.7241474
C	-2.0176586	-0.3178247	2.0678560
H	-3.2370944	-2.1226561	2.4202381
H	-1.8924936	-2.3494479	1.2919444
H	-4.6001938	-1.0748291	0.7209662
H	-3.5519725	-2.0037228	-0.3664600
H	-1.7907904	1.5199756	0.8843434
H	-1.0842168	-0.4490610	2.6213512
H	-2.7074980	0.2620864	2.6907165
O	2.5348540	0.6558139	-2.0488199
H	4.0141309	1.0915341	-3.3724742
C	2.9353787	1.1258659	-3.1196900
C	2.0559299	1.7744755	-4.1697824
C	0.5690752	1.7207231	-3.7956234
H	0.2174136	0.6836716	-3.7574992
H	-0.0332660	2.2616949	-4.5332596
H	0.3940711	2.1612502	-2.8097010
C	2.3494062	1.1453416	-5.5533421
H	2.3817936	2.8293691	-4.2155651
H	3.4183448	1.1821265	-5.7958590
H	1.8066151	1.6836350	-6.3370575
H	2.0297422	0.0969951	-5.5779701
