37
-0.00460914 (energy)
C	-0.3623688	-0.1990546	0.1861693
O	0.6414063	-0.6746004	0.7128352
O	-0.2926687	0.7605754	-0.7872449
H	-1.2200539	1.0056234	-1.0357518
N	-2.8127520	0.1736592	-0.1230550
C	-2.7364528	1.8417802	1.6510852
H	-1.8507860	1.4317419	2.1195510
H	-3.1390791	2.7427717	2.0961138
C	-3.3180616	1.3171788	0.5521646
C	-4.5262857	1.9637380	-0.0878256
H	-5.3925684	1.2911374	-0.1056625
H	-4.8091663	2.8598810	0.4679284
H	-4.3213696	2.2596017	-1.1248580
C	-2.7826214	-1.8459179	-1.3648419
C	-3.6705072	-0.6375667	-1.0332877
C	-1.7843293	-0.6774434	0.5233949
C	-2.0433561	-2.1039124	-0.0361835
H	-3.3652420	-2.7078987	-1.7013915
H	-2.0696000	-1.5884129	-2.1572266
H	-4.5921667	-0.9625074	-0.5262655
H	-3.9542001	-0.0612773	-1.9177914
H	-1.8827952	-0.6647400	1.6144886
H	-1.1150255	-2.6685870	-0.1473148
H	-2.6911750	-2.6521448	0.6572055
O	3.8028962	-4.5261655	-1.2389893
H	3.3819955	-4.3497877	0.7413910
C	3.4879506	-3.8591913	-0.2469781
C	3.2200981	-2.3675248	-0.2491054
C	3.4586722	-1.7368088	-1.6271116
H	4.5135707	-1.8182317	-1.9119881
H	3.1854426	-0.6762305	-1.6175209
H	2.8719340	-2.2426021	-2.3995395
C	4.0456699	-1.6902813	0.8715853
H	2.1539755	-2.2597792	0.0208154
H	3.8707881	-2.1637945	1.8452377
H	3.7736067	-0.6332217	0.9564285
H	5.1181108	-1.7480620	0.6516902
