37
-0.00540854 (energy)
C	0.3950632	1.9935612	-1.4520853
O	0.4446425	3.1919225	-1.7214500
O	0.5735237	1.0228122	-2.4002842
H	0.4622087	0.1439345	-1.9564031
N	-0.0000000	-0.0000000	0.0000000
C	-2.3798610	0.1691684	-0.4936251
H	-2.3448710	1.2237245	-0.7358736
H	-3.3417239	-0.3151091	-0.6042567
C	-1.3052725	-0.5507458	-0.1088071
C	-1.4055838	-2.0341532	0.1684501
H	-1.1244743	-2.2805363	1.1996767
H	-2.4303078	-2.3757584	0.0096967
H	-0.7497976	-2.6120699	-0.4955673
C	2.2003021	0.3701666	0.8020486
C	1.0579008	-0.6559758	0.8203028
C	0.1904807	1.4707898	-0.0205111
C	1.4523453	1.7179243	0.8522196
H	2.8908815	0.2358986	1.6391839
H	2.7745013	0.2841120	-0.1282587
H	0.7111461	-0.8302705	1.8505924
H	1.3431837	-1.6195333	0.3900603
H	-0.6780585	1.9924505	0.3964449
H	2.0374898	2.5640587	0.4852483
H	1.1432561	1.9413149	1.8796324
O	-0.5580613	-2.6629659	3.3949627
H	-0.1127170	-1.9496284	5.2450954
C	-0.7233812	-2.6312886	4.6196249
C	-1.7253403	-3.4715842	5.3856535
C	-2.5900201	-4.3340502	4.4571588
H	-3.2105090	-3.7034359	3.8106959
H	-3.2506064	-4.9844088	5.0404530
H	-1.9697247	-4.9577112	3.8067635
C	-2.5656553	-2.5604692	6.3129696
H	-1.1210881	-4.1298700	6.0357481
H	-1.9291566	-1.9434701	6.9587088
H	-3.2117053	-3.1670468	6.9558341
H	-3.2043784	-1.8918552	5.7240637
