37
-0.00489977 (energy)
C	1.9559451	1.6013169	0.6462077
O	2.0188777	2.8279618	0.5965360
O	2.5177834	0.8808250	1.6652819
H	2.3636253	-0.0795166	1.4760026
N	1.4163337	-0.6875262	-0.1957720
C	3.5040483	-0.6680142	-1.4515942
H	3.5693196	0.4116385	-1.4972790
H	4.3253009	-1.2158330	-1.8958719
C	2.4962813	-1.3364436	-0.8526706
C	2.4847025	-2.8469145	-0.7766770
H	1.6062309	-3.2777151	-1.2725136
H	3.3752833	-3.2524927	-1.2607517
H	2.4764682	-3.1966297	0.2638007
C	-0.7785110	-0.2683761	0.5970735
C	0.1272217	-1.3890201	0.0658605
C	1.1909595	0.7651266	-0.3930859
C	-0.3445031	0.9508237	-0.2417330
H	-1.8400199	-0.5055632	0.4845358
H	-0.5815325	-0.0919573	1.6613374
H	-0.2882377	-1.8157386	-0.8601088
H	0.2647404	-2.2023600	0.7831503
H	1.5254709	1.0907949	-1.3842391
H	-0.5918620	1.9127746	0.2126562
H	-0.8123795	0.9148567	-1.2320938
O	0.9962135	-3.0643820	2.7830380
H	-0.4083145	-1.8954800	3.6724997
C	0.1416370	-2.8577267	3.6520168
C	-0.2462887	-3.8358636	4.7426956
C	0.4930773	-5.1737760	4.6125054
H	0.2095620	-5.6833204	3.6848316
H	0.2506061	-5.8310690	5.4543761
H	1.5765090	-5.0248973	4.5852218
C	-1.7851943	-4.0010220	4.7685303
H	0.0454062	-3.3496329	5.6911563
H	-2.2945743	-3.0330977	4.8488548
H	-2.0861546	-4.6130911	5.6249099
H	-2.1370216	-4.4971809	3.8564634
