37
-0.00430424 (energy)
C	0.7738585	-3.3950565	0.0196218
O	0.4339267	-4.2126250	0.8723312
O	2.0747507	-2.9994822	-0.1368503
H	2.0987206	-2.3213648	-0.8589512
N	0.4187878	-1.7095048	-1.7891771
C	0.0191434	-0.0233476	-0.0765240
H	-0.2783429	-0.7365851	0.6816260
H	0.0504062	1.0145811	0.2295327
C	0.3760370	-0.3647339	-1.3323839
C	0.8311684	0.6725914	-2.3345032
H	0.1873611	0.6982734	-3.2222013
H	0.8142357	1.6648393	-1.8794060
H	1.8546675	0.4760938	-2.6791777
C	0.2507611	-3.5718366	-3.2469567
C	0.3817937	-2.0417426	-3.2419691
C	-0.2139324	-2.7867588	-0.9897304
C	-0.6664250	-3.8420571	-2.0369327
H	-0.1628113	-3.9489263	-4.1863633
H	1.2317608	-4.0384321	-3.0969232
H	-0.4869621	-1.5776664	-3.7339151
H	1.2858695	-1.6894547	-3.7454350
H	-1.0719712	-2.4115346	-0.4211193
H	-0.5937062	-4.8582791	-1.6432193
H	-1.7126664	-3.6583664	-2.3064753
O	3.6958175	0.2210951	1.4673622
H	3.0631130	-1.7100831	1.4875718
C	3.6247865	-0.8970100	1.9897866
C	4.2595672	-1.2835926	3.3105538
C	5.0848544	-0.1401479	3.9147528
H	5.9373378	0.1033043	3.2708597
H	5.4679081	-0.4215702	4.9014868
H	4.4840827	0.7681878	4.0183537
C	5.0785204	-2.5849386	3.1316975
H	3.4160933	-1.5191964	3.9844428
H	4.4745180	-3.3850337	2.6869208
H	5.4454123	-2.9378431	4.1009448
H	5.9454091	-2.4112237	2.4835083
