37
-0.00581109 (energy)
C	-0.3982956	1.7257619	1.9158884
O	0.0499068	2.8614423	2.0588219
O	-1.6816049	1.3972648	2.2601119
H	-1.8031396	0.4301015	2.0821459
N	-0.2963484	-0.7130212	1.3859288
C	0.5098546	-1.1242022	3.6480050
H	0.9044508	-0.1252857	3.7838612
H	0.5938691	-1.7909354	4.4967409
C	-0.0945455	-1.5474766	2.5181196
C	-0.6716235	-2.9408636	2.4046078
H	-0.2053271	-3.5152699	1.5948051
H	-0.5149089	-3.4875456	3.3365604
H	-1.7508614	-2.9136241	2.2059478
C	-0.5077503	-0.0479800	-0.8800509
C	-0.5508956	-1.2827264	0.0320466
C	0.4146734	0.5845406	1.2824500
C	0.6037863	0.8108045	-0.2433539
H	-0.2991673	-0.3093532	-1.9211564
H	-1.4674206	0.4817991	-0.8492494
H	0.2344265	-2.0004107	-0.2513484
H	-1.5125198	-1.8016883	0.0021265
H	1.3835086	0.5515744	1.7929536
H	0.5502486	1.8701529	-0.5039689
H	1.5894140	0.4382832	-0.5446552
O	3.6615084	2.4232032	-0.4937294
H	2.0926759	3.2431138	0.5046112
C	2.9912052	3.3948176	-0.1265908
C	3.2909026	4.8400935	-0.4703600
C	4.5866582	4.9880018	-1.2782968
H	5.4509316	4.6710106	-0.6840384
H	4.7375374	6.0310855	-1.5762641
H	4.5636542	4.3665492	-2.1782973
C	3.2892815	5.6921534	0.8219893
H	2.4377761	5.1790867	-1.0854556
H	2.3607001	5.5622946	1.3909099
H	3.3886203	6.7542323	0.5755917
H	4.1284629	5.4142914	1.4703637
