37
-0.00630589 (energy)
C	2.6064317	2.5960910	1.8635546
O	3.0695302	3.7023103	2.1335622
O	3.3754753	1.5864935	1.3511409
H	2.7832397	0.8085388	1.1902346
N	0.8037991	0.8940358	1.5595206
C	0.3744974	1.8114066	-0.6563659
H	0.7834698	2.7875043	-0.4283918
H	0.0282791	1.6632911	-1.6713234
C	0.3140788	0.7950853	0.2293781
C	-0.2229054	-0.5636105	-0.1618061
H	-1.0947649	-0.8506130	0.4387319
H	-0.5255782	-0.5581999	-1.2107656
H	0.5347568	-1.3473189	-0.0325339
C	0.9738389	0.5558721	3.9001116
C	0.3515522	-0.0406671	2.6291740
C	1.1395012	2.2207324	2.1314528
C	0.8673801	2.0746695	3.6544934
H	0.4531084	0.2343387	4.8063011
H	2.0244004	0.2537789	3.9875302
H	-0.7466033	-0.0550211	2.7063918
H	0.6913617	-1.0595127	2.4256521
H	0.5161751	3.0116654	1.6999067
H	1.5646836	2.6700880	4.2480000
H	-0.1477036	2.4236451	3.8754857
O	2.4477779	-2.3207458	0.7861029
H	4.4464173	-2.4097286	1.1434477
C	3.4579893	-2.9096135	1.1871506
C	3.4791475	-4.3128057	1.7593590
C	2.0734142	-4.9181991	1.8644017
H	1.4602883	-4.3508107	2.5734449
H	2.1262421	-5.9565393	2.2088310
H	1.5607199	-4.8953856	0.8982974
C	4.2339551	-4.3109672	3.1108165
H	4.0807229	-4.9103427	1.0507403
H	5.2305000	-3.8627756	3.0169018
H	4.3575143	-5.3352621	3.4770743
H	3.6752845	-3.7456695	3.8658978
