37
-0.0045278 (energy)
C	0.0292794	-0.4386967	0.1108188
O	1.1006222	-0.1039614	-0.3904417
O	-1.0122734	0.4361948	0.2625283
H	-1.7507831	-0.0492978	0.7105772
N	-1.5579554	-1.9732247	1.2790751
C	-0.5701089	-1.3036924	3.4032003
H	0.3754134	-1.0033294	2.9698796
H	-0.6761307	-1.1538757	4.4700923
C	-1.5998264	-1.8048509	2.6893210
C	-2.9162706	-2.1605141	3.3434693
H	-3.1647046	-3.2216490	3.2192571
H	-2.8708754	-1.9500032	4.4137873
H	-3.7453814	-1.5793751	2.9194234
C	-1.9552586	-2.9056915	-0.8643544
C	-2.4872948	-2.9031207	0.5762402
C	-0.2655697	-1.8803329	0.5572465
C	-0.4279493	-2.8240847	-0.6666824
H	-2.2651351	-3.7959258	-1.4185952
H	-2.3198612	-2.0248868	-1.4064151
H	-2.4392643	-3.9147618	1.0079689
H	-3.5196441	-2.5511304	0.6490115
H	0.5693642	-2.2037091	1.1886383
H	0.1130332	-2.4505603	-1.5389340
H	-0.0251950	-3.8122893	-0.4171686
O	1.2987252	4.2554423	2.7960728
H	0.5382274	2.7563425	1.6539188
C	1.4304249	3.3056725	2.0158651
C	2.7529793	2.7947052	1.4805326
C	3.9388823	3.6436749	1.9564589
H	3.8676899	4.6631003	1.5611127
H	4.8848036	3.2080648	1.6172695
H	3.9586816	3.7173701	3.0477474
C	2.6788848	2.6786251	-0.0612880
H	2.8556702	1.7695836	1.8801124
H	1.8177800	2.0793205	-0.3808658
H	3.5848145	2.2017751	-0.4492278
H	2.5939595	3.6702764	-0.5208936
