37
-0.00411206 (energy)
C	0.0063787	4.1231286	-0.0760327
O	-0.2288832	5.2257651	-0.5658590
O	1.2649562	3.7471408	0.3085436
H	1.2119405	2.8164799	0.6445602
N	-0.5215622	1.7884769	0.6378251
C	-0.1383509	1.0503587	-1.6522301
H	-0.3406153	2.0187244	-2.0919507
H	0.1573972	0.2664029	-2.3377157
C	-0.2008584	0.7970949	-0.3282014
C	0.1417888	-0.5648331	0.2332044
H	-0.7032190	-1.0140666	0.7692141
H	0.4242041	-1.2422076	-0.5751035
H	0.9823470	-0.5092268	0.9370026
C	-1.4040990	2.7785434	2.6031575
C	-1.0085080	1.4233679	1.9986830
C	-1.0941802	3.0874961	0.2081928
C	-1.9922383	3.5351571	1.3948384
H	-2.1163630	2.6727665	3.4260880
H	-0.5175498	3.2976575	2.9867366
H	-1.8818356	0.7553470	1.9424588
H	-0.2270214	0.9139838	2.5685465
H	-1.6859752	2.9804446	-0.7075917
H	-1.9963304	4.6212480	1.5105761
H	-3.0228434	3.2112809	1.2105181
O	3.5471251	1.0367495	-0.6454761
H	2.0718971	1.6126642	-1.9191313
C	3.1341028	1.6884588	-1.6113018
C	3.9760555	2.6243990	-2.4550731
C	5.4130241	2.7440647	-1.9312194
H	5.4244974	3.2006372	-0.9352249
H	6.0166794	3.3650729	-2.6016832
H	5.8848225	1.7608443	-1.8450956
C	3.2658255	3.9944421	-2.5764418
H	3.9929215	2.1753336	-3.4645976
H	2.2367592	3.8857818	-2.9397774
H	3.8050328	4.6398629	-3.2773550
H	3.2330100	4.5012990	-1.6049269
