37
-0.00366968 (energy)
C	1.8176185	-1.4906930	1.1320861
O	2.0362101	-1.6977703	2.3239007
O	1.9337682	-2.4727044	0.1858060
H	1.7374015	-2.0660126	-0.6961745
N	1.3134130	-0.1046569	-0.8837496
C	3.6811189	0.4483394	-1.0392682
H	3.8834321	0.2649893	0.0083240
H	4.5315495	0.7257231	-1.6489979
C	2.4634460	0.3144191	-1.6053422
C	2.2514501	0.5360112	-3.0863507
H	1.5349216	1.3426850	-3.2838846
H	3.1964573	0.8028586	-3.5635403
H	1.8684004	-0.3681814	-3.5769329
C	-0.9548509	-0.2767089	-0.2151604
C	-0.0641023	0.1667023	-1.3849192
C	1.3349740	-0.1314680	0.5990661
C	-0.1348103	0.1461446	1.0206130
H	-1.9439195	0.1884369	-0.2484161
H	-1.0911624	-1.3647032	-0.2315779
H	-0.2068222	1.2379389	-1.5951509
H	-0.2605522	-0.3894563	-2.3052631
H	2.0059584	0.6345328	1.0032507
H	-0.4007627	-0.3899978	1.9343011
H	-0.2603818	1.2183269	1.2094871
O	2.3050974	-2.5988692	8.9850166
H	1.7020027	-4.1070065	7.7635538
C	2.1794593	-3.1120022	7.8674115
C	2.6349823	-2.4855474	6.5647713
C	3.2150909	-1.0799427	6.7681689
H	2.4451083	-0.3939545	7.1384958
H	3.6040463	-0.6837350	5.8240789
H	4.0246949	-1.0898097	7.5038166
C	1.4737110	-2.5128926	5.5416014
H	3.4259952	-3.1532819	6.1781021
H	1.0649897	-3.5233857	5.4205722
H	1.8235623	-2.1706065	4.5622976
H	0.6598977	-1.8516165	5.8613572
