37
-0.00351913 (energy)
C	-2.3466561	0.8361368	0.1816417
O	-3.4927276	0.8717933	0.6247377
O	-1.9546423	1.5864797	-0.8938088
H	-1.0058361	1.3712180	-1.0816294
N	-0.0000000	-0.0000000	0.0000000
C	-0.8005999	-1.7991064	-1.4346700
H	-1.8132058	-1.7724504	-1.0526803
H	-0.6090761	-2.5052266	-2.2325779
C	0.1894785	-0.9919702	-0.9994945
C	1.5737336	-1.0407674	-1.6068561
H	2.3404601	-1.2955841	-0.8649974
H	1.6089656	-1.7931311	-2.3972127
H	1.8535318	-0.0747978	-2.0468311
C	0.4613070	1.4246312	1.8382753
C	1.1470840	0.5639310	0.7671605
C	-1.2314134	-0.0032686	0.8267627
C	-0.7933301	0.5998126	2.1903656
H	1.1079465	1.6042492	2.7015934
H	0.1763219	2.3974402	1.4199359
H	1.7428398	-0.2345289	1.2358301
H	1.8065576	1.1412903	0.1139464
H	-1.6218309	-1.0183933	0.9588172
H	-1.5940602	1.1840241	2.6492049
H	-0.5316235	-0.2126898	2.8776545
O	1.6163173	-2.8899364	-4.4155188
H	1.4935169	-4.7741630	-3.6639985
C	1.3738511	-4.0963976	-4.5329628
C	0.9073341	-4.7714239	-5.8071370
C	0.6872467	-3.7694841	-6.9478821
H	-0.1243316	-3.0757127	-6.7016770
H	0.4245170	-4.2920795	-7.8738625
H	1.5854597	-3.1710533	-7.1262845
C	-0.3472779	-5.6284681	-5.5111654
H	1.7193015	-5.4673224	-6.0855577
H	-0.1733100	-6.3283277	-4.6848911
H	-0.6246586	-6.2118391	-6.3950941
H	-1.1982065	-4.9906745	-5.2447788
