37
-0.00344578 (energy)
C	0.4338025	-0.1233765	0.0467601
O	0.0875314	-0.3901131	-1.1021669
O	-0.4185263	0.4454536	0.9540918
H	0.0879152	0.5907291	1.7932936
N	2.0421866	0.1210992	1.9420820
C	2.6886290	2.2954116	1.0529816
H	2.3832783	2.0703263	0.0390314
H	3.0677864	3.2942755	1.2274945
C	2.5857257	1.4265948	2.0804395
C	2.9825667	1.8152722	3.4871657
H	3.7832725	1.1771338	3.8806184
H	3.3379402	2.8474502	3.5037322
H	2.1341561	1.7386073	4.1794693
C	1.7130341	-2.2013986	2.2874759
C	2.3278089	-0.9525217	2.9361209
C	1.8319514	-0.4575770	0.5926891
C	2.0059832	-1.9894064	0.7882602
H	2.1455670	-3.1265024	2.6784001
H	0.6315981	-2.2304346	2.4670167
H	3.4115310	-1.0844543	3.0784390
H	1.8841747	-0.7135048	3.9061712
H	2.5636333	-0.0724638	-0.1261098
H	1.3518565	-2.5580362	0.1235921
H	3.0415909	-2.2674235	0.5618984
O	4.0662363	0.4222168	-1.7947616
H	3.9790455	-1.3794414	-2.7310299
C	4.5444783	-0.4469232	-2.5323333
C	5.8901611	-0.3589460	-3.2238651
C	6.5858702	0.9848823	-2.9714064
H	6.0080421	1.8072080	-3.4078582
H	7.5854794	0.9908932	-3.4189754
H	6.6806554	1.1850694	-1.9001107
C	5.7212750	-0.6733056	-4.7301290
H	6.4987622	-1.1714968	-2.7874597
H	5.2107838	-1.6309339	-4.8886985
H	6.6999490	-0.7275285	-5.2178264
H	5.1377336	0.1108227	-5.2265606
