37
-0.00250299 (energy)
C	-0.3916481	-0.2108118	0.0881079
O	-0.4592160	0.9227384	0.5588349
O	0.7196048	-0.6646105	-0.5695141
H	0.5307294	-1.5865766	-0.8795981
N	-1.2547964	-2.4640640	-0.5574481
C	-2.1663438	-1.4814479	-2.5920412
H	-2.2261994	-0.4793577	-2.1867881
H	-2.4629482	-1.5972036	-3.6267250
C	-1.7182350	-2.5484826	-1.8979683
C	-1.6100148	-3.9164628	-2.5338534
H	-2.2278634	-4.6610790	-2.0171666
H	-1.9382905	-3.8722563	-3.5741596
H	-0.5759878	-4.2846796	-2.5209323
C	-0.8273626	-3.0761280	1.6929546
C	-1.1832122	-3.6666008	0.3206955
C	-1.5187596	-1.2449871	0.2451111
C	-1.6154067	-1.7505893	1.7114202
H	-1.1001066	-3.7442258	2.5145260
H	0.2502614	-2.8830663	1.7564804
H	-2.1529022	-4.1862378	0.3630374
H	-0.4345556	-4.3733698	-0.0466310
H	-2.4521594	-0.7593727	-0.0603162
H	-1.2280586	-1.0139102	2.4187183
H	-2.6659799	-1.9382051	1.9606444
O	4.6170445	1.3505801	2.6151758
H	3.4081362	0.2868059	1.3753782
C	3.5751706	0.7289619	2.3780658
C	2.4516173	0.5011931	3.3693115
C	2.7774032	1.0691785	4.7567110
H	3.6321758	0.5446229	5.1980729
H	1.9202251	0.9576145	5.4292969
H	3.0402299	2.1294271	4.6973100
C	2.0896798	-1.0033854	3.4069952
H	1.5790051	1.0361123	2.9527865
H	1.8731566	-1.3925324	2.4047578
H	1.2042120	-1.1644852	4.0303614
H	2.9137486	-1.5896821	3.8300660
