37
-0.00224959 (energy)
C	1.9264108	1.2078991	-1.0338445
O	2.9170305	1.3320318	-1.7510258
O	1.5197010	2.1902887	-0.1719971
H	0.7239940	1.8545228	0.3137592
N	0.0000000	0.0000000	0.0000000
C	1.5305527	-0.9357061	1.6486008
H	2.4088715	-0.8269870	1.0251158
H	1.6961809	-1.3292764	2.6433942
C	0.2866917	-0.5792815	1.2653605
C	-0.8957641	-0.7083189	2.1994799
H	-1.6676404	-1.3758854	1.7973390
H	-0.5708637	-1.1121603	3.1603690
H	-1.3695666	0.2644623	2.3843321
C	-1.1698233	0.5251144	-1.9943427
C	-1.3761338	-0.0184461	-0.5729490
C	1.0167336	-0.0310343	-1.0794517
C	0.1932486	-0.0736903	-2.3966798
H	-1.9783043	0.2337034	-2.6704799
H	-1.1186289	1.6204393	-1.9793618
H	-1.7796060	-1.0423007	-0.6052949
H	-2.0551429	0.5958019	0.0241975
H	1.6617013	-0.9127535	-0.9962030
H	0.6941804	0.4658880	-3.2034809
H	0.0704533	-1.1158393	-2.7126915
O	5.4921156	4.6544764	3.9163233
H	6.8905635	3.3193532	3.2902543
C	5.8546210	3.7058703	3.2114348
C	4.9816088	2.9858077	2.2033782
C	3.5420798	3.5162342	2.1983580
H	3.0548468	3.3207698	3.1601234
H	2.9558925	3.0312155	1.4105039
H	3.5205934	4.5977589	2.0353361
C	5.0574683	1.4591466	2.4477686
H	5.4451798	3.1819524	1.2196542
H	6.0945407	1.1026153	2.4605662
H	4.5254285	0.9218831	1.6560153
H	4.5944960	1.1966781	3.4061990
