37
-0.00142165 (energy)
C	-1.6209706	0.7665309	2.7389634
O	-1.9116073	1.9469769	2.5287664
O	-0.7906307	0.3891858	3.7736573
H	-0.4631470	1.1848483	4.2478128
N	-1.1829632	-1.4468788	1.6538292
C	-0.0124685	-0.0698460	0.0411325
H	-0.6267878	0.8063804	0.2053952
H	0.7752484	0.0252646	-0.6951523
C	-0.1777621	-1.2387623	0.7057080
C	0.7354474	-2.4186475	0.4541607
H	0.1738777	-3.3098849	0.1468989
H	1.4480179	-2.1782487	-0.3373626
H	1.3071235	-2.6860438	1.3519506
C	-2.4545641	-2.3108799	3.4663973
C	-1.3647236	-2.6825356	2.4411158
C	-2.1731903	-0.4216803	1.9560038
C	-3.2519157	-1.1874910	2.7709638
H	-3.0830070	-3.1669512	3.7296087
H	-1.9917213	-1.9292225	4.3811298
H	-1.6893993	-3.5168157	1.8006186
H	-0.4353151	-2.9841490	2.9365120
H	-2.5920072	0.0048198	1.0370890
H	-3.7886502	-0.5423831	3.4724837
H	-3.9847585	-1.6052060	2.0712564
O	6.1950126	0.7689174	2.3791142
H	6.3676085	1.3571847	0.4415062
C	5.7135638	1.0097447	1.2663066
C	4.2491887	0.8701678	0.9016938
C	3.4128471	0.3129485	2.0608575
H	3.7245768	-0.7084215	2.3062617
H	2.3505550	0.2942389	1.7948534
H	3.5371486	0.9180485	2.9637066
C	4.1141247	0.0318627	-0.3925927
H	3.9063168	1.8935435	0.6645759
H	4.7291695	0.4390098	-1.2042260
H	3.0728052	0.0217950	-0.7304449
H	4.4238810	-1.0049464	-0.2168089
