37
-0.000434945 (energy)
C	2.4336094	-3.1455275	0.3402113
O	2.7559795	-3.8400779	1.3075699
O	3.3505903	-2.3828382	-0.3525343
H	4.2350424	-2.4576306	0.0685339
N	0.6077613	-1.7396157	-0.6386856
C	0.3877248	-0.9879930	1.6534128
H	0.7517076	-1.9103979	2.0879574
H	0.1057898	-0.2068148	2.3476263
C	0.2842800	-0.7752676	0.3194732
C	-0.2016830	0.5493124	-0.2270470
H	-1.0774507	0.4251453	-0.8764220
H	-0.4805338	1.2131071	0.5937308
H	0.5745157	1.0521581	-0.8178117
C	1.2097330	-2.8097056	-2.6737305
C	0.5640387	-1.5326740	-2.0998387
C	1.0318427	-3.0812365	-0.2604006
C	0.9467834	-3.8780268	-1.5916274
H	0.7866506	-3.0860231	-3.6441576
H	2.2863135	-2.6603034	-2.7973218
H	-0.4720504	-1.4177214	-2.4533631
H	1.1191617	-0.6357718	-2.3957999
H	0.3685080	-3.5036357	0.5033273
H	1.6522332	-4.7130304	-1.6302020
H	-0.0648205	-4.2887695	-1.6869314
O	-4.4959828	-3.8292400	4.2034852
H	-5.2372298	-2.7458877	2.6520105
C	-4.3668883	-3.0123736	3.2846841
C	-3.0759517	-2.3065231	2.9212611
C	-1.9316682	-2.6589517	3.8804434
H	-2.1531257	-2.3040287	4.8931533
H	-0.9959224	-2.1954878	3.5500594
H	-1.7848187	-3.7414370	3.9387033
C	-3.3277595	-0.7823924	2.8222980
H	-2.8223023	-2.6616690	1.9060679
H	-4.1571562	-0.5527696	2.1424658
H	-2.4333719	-0.2742415	2.4475379
H	-3.5679177	-0.3645911	3.8069747
