37
-0.00152518 (energy)
C	-0.7050900	-0.7344371	2.2873564
O	-1.5352462	-0.5648642	3.1841233
O	0.6092072	-1.0549702	2.5562929
H	0.7571137	-1.0760619	3.5272855
N	-0.0000000	0.0000000	0.0000000
C	-0.5700002	2.1875319	0.8699837
H	-1.3127158	1.8189130	1.5661424
H	-0.4147306	3.2586454	0.8536635
C	0.1564778	1.3875858	0.0528768
C	1.2041148	1.9613037	-0.8759187
H	1.0118139	1.6923226	-1.9222188
H	1.2128461	3.0506305	-0.8027866
H	2.2090968	1.5989829	-0.6247696
C	0.3799035	-2.3183965	-0.3599738
C	0.8070519	-0.9142439	-0.8321839
C	-1.0116392	-0.6861844	0.7928607
C	-1.0527478	-2.1111630	0.1747827
H	0.4212077	-3.0557996	-1.1671971
H	1.0352223	-2.6555903	0.4484066
H	0.5908874	-0.7717848	-1.9020683
H	1.8802103	-0.7513641	-0.6838958
H	-1.9831993	-0.1850607	0.7112491
H	-1.3585533	-2.8755277	0.8949271
H	-1.7793119	-2.1133995	-0.6457259
O	-7.5401419	-0.9163257	3.8064175
H	-7.1668687	-2.5397335	2.6422067
C	-6.7742360	-1.6449010	3.1655604
C	-5.2820399	-1.4249023	3.0180149
C	-4.8157994	-0.1314763	3.6986691
H	-5.2630770	0.7433522	3.2136816
H	-3.7261023	-0.0374922	3.6412241
H	-5.1141743	-0.1095847	4.7509175
C	-4.8934558	-1.4886246	1.5209788
H	-4.8066796	-2.2896474	3.5153402
H	-5.2468865	-2.4140667	1.0504034
H	-3.8050545	-1.4477130	1.4100705
H	-5.3224737	-0.6416438	0.9729012
