37
-0.00185265 (energy)
C	-0.2841655	-0.0558812	-0.3966468
O	0.8573103	-0.4719770	-0.6111294
O	-0.6505852	0.4862202	0.8175640
H	0.1026330	0.4393176	1.4465397
N	-2.7095143	-0.4083946	-0.9084731
C	-2.0942922	-2.7403328	-0.6834537
H	-1.0665339	-2.5943238	-0.9909231
H	-2.3839521	-3.7536886	-0.4367432
C	-2.9998100	-1.7371981	-0.5880280
C	-4.4144219	-2.0008868	-0.1203760
H	-5.1555954	-1.6721032	-0.8597255
H	-4.5587594	-3.0694281	0.0512151
H	-4.6343071	-1.4764899	0.8182398
C	-2.7736999	1.9636415	-1.0433626
C	-3.6466969	0.7234632	-0.7660242
C	-1.4071560	-0.0144667	-1.4296014
C	-1.6463015	1.4293468	-1.9516037
H	-3.3416159	2.7713125	-1.5147626
H	-2.3520804	2.3401542	-0.1068283
H	-4.4722716	0.6484450	-1.4902293
H	-4.0850426	0.7588370	0.2373650
H	-1.0859543	-0.6846137	-2.2354840
H	-0.7421710	2.0442526	-1.9230189
H	-1.9798267	1.3713840	-2.9939741
O	5.3308129	-0.0662641	2.3601063
H	5.7018850	-1.5938696	3.6480891
C	4.9561133	-0.9634465	3.1235168
C	3.5104013	-1.3019818	3.4270443
C	2.5321023	-0.3458529	2.7325160
H	2.6523312	0.6742855	3.1139053
H	1.4974661	-0.6593905	2.9080005
H	2.7101899	-0.3141434	1.6536217
C	3.3024998	-1.3637990	4.9597318
H	3.3594353	-2.3244349	3.0360421
H	4.0193611	-2.0420751	5.4381134
H	2.2937232	-1.7207929	5.1910690
H	3.4217965	-0.3701982	5.4073341
