37
-0.00856298 (energy)
C	2.4865712	-0.1815345	-0.2292549
O	3.4034930	-0.8524996	-0.7100516
O	2.6151875	0.4792760	0.9745859
H	3.4951806	0.2902669	1.3683313
N	-0.0000000	-0.0000000	-0.0000000
C	0.1672634	-2.3991184	0.2886546
H	1.0646311	-2.5011854	-0.3083855
H	-0.2355787	-3.3100600	0.7124031
C	-0.4456113	-1.2147928	0.5276216
C	-1.6802963	-1.1335095	1.3984273
H	-2.5245678	-0.6774199	0.8662032
H	-1.9810463	-2.1340185	1.7155841
H	-1.5003537	-0.5344114	2.3001164
C	0.3817965	2.3178532	-0.3614666
C	-0.6023205	1.3187183	0.2791002
C	1.1405192	0.0685386	-0.9041071
C	1.0556451	1.5060774	-1.4876762
H	-0.1240186	3.2122735	-0.7372887
H	1.1296653	2.6284863	0.3739386
H	-1.6028563	1.4013651	-0.1723107
H	-0.7063061	1.4936659	1.3555613
H	1.0649135	-0.6897141	-1.6921749
H	2.0326376	1.9022932	-1.7790127
H	0.4232526	1.4812877	-2.3824387
O	4.6016954	0.7703414	3.3242156
H	5.3209860	2.6155458	2.8681293
C	5.3179243	1.7498072	3.5604242
C	6.2347187	1.8900866	4.7590185
C	6.1262376	0.6957871	5.7158370
H	5.1230366	0.6407619	6.1530499
H	6.8523626	0.7881088	6.5305712
H	6.3061081	-0.2474138	5.1916689
C	5.9704883	3.2452832	5.4588756
H	7.2577857	1.9317472	4.3434681
H	6.0399518	4.0839944	4.7556432
H	6.7041899	3.4101048	6.2545561
H	4.9714856	3.2600829	5.9100925
