37
-4.0069e-05 (energy)
C	1.2475610	2.7530582	-2.6070680
O	1.3740010	2.7318435	-3.8341248
O	2.3249902	2.9186463	-1.7619811
H	3.1559192	2.9672282	-2.2838476
N	-0.0527680	1.8279116	-0.6778721
C	0.1297604	-0.2269249	-1.9472807
H	0.1869123	0.2646671	-2.9102003
H	0.1691779	-1.3086072	-1.9555661
C	0.0249809	0.4357613	-0.7703286
C	-0.0179830	-0.3083985	0.5463858
H	-0.9213251	-0.0675473	1.1208754
H	-0.0076880	-1.3854900	0.3679894
H	0.8456895	-0.0634500	1.1775840
C	0.0316047	4.0605570	0.1327116
C	-0.1109304	2.5930380	0.5834381
C	-0.0836852	2.6725335	-1.8646952
C	-0.5110561	4.0603564	-1.3119057
H	-0.5166679	4.7476776	0.7841265
H	1.0862415	4.3509959	0.1355264
H	-1.0668131	2.4280390	1.1037629
H	0.6952354	2.3040851	1.2666593
H	-0.8039314	2.2939173	-2.5992764
H	-0.1316904	4.8904567	-1.9147269
H	-1.6056610	4.1146379	-1.3172282
O	5.3368538	-0.9086981	4.0124254
H	4.9185159	1.0775071	3.9116533
C	4.7100262	0.0508525	3.5493039
C	3.6347190	-0.0425048	2.4854349
C	3.4490068	-1.4761863	1.9719277
H	4.3555888	-1.8257536	1.4654627
H	2.6168248	-1.5258574	1.2615908
H	3.2480404	-2.1674639	2.7956274
C	3.9377188	0.9663612	1.3511705
H	2.7036337	0.2910164	2.9783116
H	4.0797596	1.9818303	1.7403290
H	3.1095572	0.9917416	0.6355617
H	4.8460029	0.6785119	0.8089668
