37
-0.00138906 (energy)
C	1.8609901	-0.3535621	-1.7221208
O	2.2361692	-0.9080227	-2.7584216
O	2.2787691	0.9147983	-1.3769137
H	2.9200347	1.2490410	-2.0419009
N	1.2071065	-0.7279951	0.6655109
C	3.0644909	-2.2814162	0.6016824
H	2.9719966	-2.4918535	-0.4562893
H	3.8561226	-2.7987534	1.1283137
C	2.2624603	-1.4171255	1.2688378
C	2.4633580	-1.1408155	2.7428288
H	1.5573821	-1.3537603	3.3241521
H	3.2703313	-1.7637472	3.1337348
H	2.7294387	-0.0918253	2.9249322
C	-0.4934414	0.8638781	0.1933391
C	0.3452014	0.2633969	1.3392811
C	0.8565266	-0.9386672	-0.7329175
C	-0.5340168	-0.2581357	-0.8653574
H	-1.4929237	1.1608502	0.5248834
H	0.0098369	1.7449911	-0.2152833
H	-0.2975550	-0.2168415	2.0928788
H	0.9377043	1.0323324	1.8470869
H	0.8043572	-2.0078003	-0.9694490
H	-0.7295751	0.1104429	-1.8764385
H	-1.3068455	-0.9961179	-0.6219383
O	3.9422976	-6.8730047	-4.5000723
H	5.3895247	-6.7999267	-3.0751631
C	4.4460866	-6.3842530	-3.4825016
C	3.8743801	-5.2185141	-2.7008220
C	2.6143878	-4.6408107	-3.3583168
H	2.8516093	-4.2130644	-4.3388035
H	2.1816745	-3.8518076	-2.7339724
H	1.8596084	-5.4170666	-3.5147400
C	4.9756364	-4.1540721	-2.4763825
H	3.6115988	-5.6298195	-1.7094302
H	5.8716770	-4.5895844	-2.0178658
H	4.6084225	-3.3627750	-1.8148732
H	5.2684102	-3.6930469	-3.4269409
