37
-0.00208222 (energy)
C	2.8124024	0.0435229	1.6749729
O	2.4370171	-0.3202766	2.7924885
O	3.3510329	1.2938826	1.4537875
H	3.3374840	1.8165733	2.2855078
N	2.3659267	-0.1378729	-0.7819162
C	0.0603960	0.0112069	-0.0543373
H	0.2416957	-0.4315531	0.9168667
H	-0.9608208	0.2981140	-0.2698822
C	1.0301036	0.2233283	-0.9763023
C	0.7182700	0.8770211	-2.3047609
H	1.0129887	0.2423213	-3.1499659
H	-0.3533607	1.0702374	-2.3843374
H	1.2422537	1.8347213	-2.4169768
C	4.7327064	-0.2715166	-0.9532733
C	3.4634982	0.1246212	-1.7338293
C	2.8032874	-0.8300092	0.4233033
C	4.2326943	-1.3205202	0.0620981
H	5.5146953	-0.6655908	-1.6092288
H	5.1326461	0.5988105	-0.4248790
H	3.3517130	-0.4823194	-2.6453124
H	3.4912835	1.1775098	-2.0352290
H	2.1385565	-1.6692030	0.6591019
H	4.8808771	-1.4153988	0.9380179
H	4.1534218	-2.3086685	-0.4052493
O	1.1365516	0.1070777	-5.4422301
H	0.7810395	-1.8590530	-5.8138666
C	0.9981827	-0.8484365	-6.2142263
C	1.1008514	-0.7705871	-7.7242651
C	1.3247797	0.6646791	-8.2177105
H	0.4617096	1.2952617	-7.9767317
H	1.4702681	0.6802452	-9.3031429
H	2.2006973	1.1138931	-7.7405222
C	-0.1406778	-1.4379932	-8.3640694
H	1.9772235	-1.3882765	-7.9916891
H	-0.2903334	-2.4575528	-7.9887045
H	-0.0235710	-1.4921992	-9.4512397
H	-1.0461580	-0.8587060	-8.1487699
