37
-0.00683349 (energy)
C	1.1914318	-2.9146850	-0.8956211
O	0.5254098	-3.6779012	-0.1913334
O	2.5604022	-2.8058897	-0.7670564
H	2.8743369	-3.3763125	-0.0313863
N	1.1829635	-0.7088187	-2.0799482
C	0.0479275	0.0124606	-0.0653720
H	-0.3850921	-0.9565901	0.1481182
H	-0.1855724	0.8082240	0.6302553
C	0.8523415	0.2585656	-1.1273034
C	1.4537173	1.6284379	-1.3534757
H	1.1868664	2.0327149	-2.3380696
H	1.0946571	2.3249102	-0.5931735
H	2.5493771	1.6033981	-1.2965202
C	2.2781422	-1.9120209	-3.8125064
C	2.0987745	-0.5003844	-3.2190488
C	0.6300971	-2.0557718	-2.0256606
C	0.9807785	-2.6488296	-3.4183485
H	2.4316882	-1.8881737	-4.8955271
H	3.1409247	-2.4030736	-3.3530555
H	1.6623136	0.1889744	-3.9579403
H	3.0559683	-0.0784595	-2.8935529
H	-0.4534506	-2.0307663	-1.8613030
H	1.0922269	-3.7367471	-3.3985224
H	0.1686632	-2.4073627	-4.1135444
O	2.1955970	-2.9960747	2.6310290
H	0.8851197	-3.1914578	4.1720181
C	1.4436340	-3.6709657	3.3432125
C	1.1986974	-5.1584370	3.1874766
C	1.9384377	-5.7451507	1.9782732
H	1.5578532	-5.3136467	1.0457740
H	1.8044655	-6.8313133	1.9349717
H	3.0091444	-5.5260279	2.0262920
C	-0.3243244	-5.4325879	3.1497806
H	1.5901525	-5.6193717	4.1123473
H	-0.8357426	-4.9942418	4.0152871
H	-0.5154089	-6.5105729	3.1549352
H	-0.7711671	-5.0130965	2.2408358
