37
-0.000950273 (energy)
C	2.4315292	-0.5647113	-0.1931726
O	3.5261670	-0.1621503	-0.5954387
O	2.0881819	-1.9003856	-0.2162395
H	2.8106675	-2.4251422	-0.6258649
N	-0.0000000	0.0000000	0.0000000
C	0.3450480	0.8606150	-2.2377112
H	1.3921223	1.0910515	-2.0871203
H	-0.0631300	1.0899409	-3.2136515
C	-0.4462082	0.3053255	-1.2885458
C	-1.8958125	-0.0233341	-1.5713653
H	-2.5714670	0.4734731	-0.8637298
H	-2.1633199	0.3009314	-2.5790106
H	-2.0866001	-1.1018856	-1.5030436
C	0.2038071	-0.9475763	2.1701225
C	-0.8099579	-0.6558274	1.0457358
C	1.3542943	0.3154906	0.4350213
C	1.2939342	0.1273266	1.9761980
H	-0.2553440	-0.9017503	3.1621705
H	0.6338820	-1.9443202	2.0353688
H	-1.6147413	0.0072729	1.3982923
H	-1.2741053	-1.5768886	0.6764099
H	1.6252271	1.3431855	0.1664084
H	2.2592921	-0.1557621	2.4055266
H	0.9901506	1.0771738	2.4307753
O	2.3635882	0.9614698	-7.9677956
H	1.2268783	-0.6140781	-7.3713794
C	1.8383891	0.2667878	-7.0904619
C	1.9536757	0.5121826	-5.5993855
C	2.8738980	1.6961544	-5.2753130
H	3.9017112	1.4843200	-5.5904659
H	2.8782883	1.8967935	-4.1986063
H	2.5518455	2.6011064	-5.7988372
C	2.3849356	-0.7943753	-4.8900925
H	0.9282404	0.7445457	-5.2594243
H	1.7226122	-1.6305423	-5.1449450
H	2.3588718	-0.6619584	-3.8036404
H	3.4073174	-1.0700671	-5.1739086
