37
-0.00350768 (energy)
C	-0.1584870	2.2085408	-1.1686650
O	0.3532257	3.3260381	-1.2756941
O	-1.5174521	2.0095148	-1.2953448
H	-1.9709770	2.8702525	-1.4317029
N	-0.0000000	-0.0000000	-0.0000000
C	0.5119103	1.4018394	1.9078423
H	0.9429734	2.2026520	1.3204524
H	0.4965463	1.5457076	2.9805607
C	-0.0017186	0.2688681	1.3712704
C	-0.6205541	-0.8006682	2.2444780
H	-0.1350408	-1.7742761	2.1015129
H	-0.5248360	-0.5262043	3.2968871
H	-1.6880295	-0.9327227	2.0267651
C	-0.5125000	-0.8933636	-2.1419886
C	-0.5978682	-1.1928344	-0.6319846
C	0.6155412	0.9101370	-0.9568964
C	0.6861262	0.0710601	-2.2627456
H	-0.3781365	-1.8021616	-2.7362205
H	-1.4275509	-0.3956185	-2.4759843
H	-0.0342213	-2.1026470	-0.3746572
H	-1.6349128	-1.3407510	-0.3112864
H	1.6133588	1.2175156	-0.6228414
H	0.6526258	0.6891152	-3.1645570
H	1.6323178	-0.4819357	-2.2699442
O	3.8569980	0.8930388	-0.9925622
H	3.9315341	2.4819120	0.2723880
C	4.2811253	2.0074500	-0.6664711
C	5.2783742	2.8268869	-1.4607231
C	5.7803986	2.0833883	-2.7052321
H	6.3406728	1.1861229	-2.4195703
H	6.4393731	2.7266090	-3.2981844
H	4.9463978	1.7606875	-3.3353433
C	6.4283795	3.2871880	-0.5323988
H	4.7301956	3.7334855	-1.7748299
H	6.0480325	3.8045180	0.3567037
H	7.0928255	3.9752291	-1.0650363
H	7.0244030	2.4294857	-0.1993449
