37
-0.00345065 (energy)
C	-1.0095672	0.6480608	-2.2615883
O	-0.8303144	0.8764049	-3.4606849
O	-2.1710364	0.0720505	-1.7907946
H	-2.7996323	-0.0692041	-2.5324563
N	-0.5381437	1.4618257	0.0587770
C	-0.9705081	3.6214793	-0.9492037
H	-0.6483522	3.3266772	-1.9398855
H	-1.3082291	4.6437163	-0.8367973
C	-0.9776993	2.7869531	0.1179711
C	-1.4710315	3.2502678	1.4712336
H	-0.7071016	3.1228279	2.2485654
H	-1.7385118	4.3080056	1.4299753
H	-2.3592215	2.6906572	1.7910706
C	-0.1904363	-0.8411635	0.5322855
C	-0.5806648	0.5023890	1.1801057
C	0.0198673	0.8951074	-1.1620199
C	0.6690765	-0.4326255	-0.6825125
H	0.3502150	-1.4922928	1.2256871
H	-1.0881241	-1.3673009	0.1947095
H	0.1316011	0.7842979	1.9705985
H	-1.5779823	0.4546291	1.6309549
H	0.7630178	1.5681745	-1.6052154
H	0.6984201	-1.1956771	-1.4656278
H	1.7010866	-0.2247935	-0.3777244
O	3.7955488	0.5774447	0.1303056
H	3.9568593	0.7046795	-1.8915656
C	4.4597506	0.7107435	-0.9037152
C	5.9637124	0.8900715	-0.9562417
C	6.5883560	0.9675583	0.4428428
H	6.2327873	1.8562460	0.9761347
H	7.6801736	1.0208280	0.3745106
H	6.3173181	0.0953100	1.0448850
C	6.3099486	2.1154658	-1.8364148
H	6.3485877	-0.0050037	-1.4775815
H	5.8436706	2.0468493	-2.8267047
H	7.3932967	2.1865647	-1.9774592
H	5.9679876	3.0425635	-1.3616785
