37
-0.00364074 (energy)
C	-0.2841655	-0.0831500	0.3918386
O	0.8573103	0.2344947	0.7356994
O	-0.6505852	-0.1772742	-0.9345560
H	0.1026330	0.0819222	-1.5095581
N	-2.7095143	0.0730492	0.9933646
C	-2.0942922	2.3413155	1.5794855
H	-1.0665339	2.0989511	1.8184742
H	-2.3839521	3.3779385	1.6942416
C	-2.9998100	1.4313148	1.1467223
C	-4.4144219	1.8390475	0.7974601
H	-5.1555954	1.2772195	1.3797707
H	-4.5587594	2.9018355	1.0016799
H	-4.6343071	1.6673012	-0.2639045
C	-2.7736999	-2.2020705	0.3088351
C	-3.6466969	-0.9418288	0.4723883
C	-1.4071560	-0.4753582	1.3483338
C	-1.6463015	-2.0106345	1.3450421
H	-3.3416159	-3.1222612	0.4755664
H	-2.3520804	-2.2355630	-0.6999943
H	-4.4722716	-1.1190275	1.1785762
H	-4.0850426	-0.6318899	-0.4825877
H	-1.0859543	-0.1212542	2.3348195
H	-0.7421710	-2.5786803	1.1078710
H	-1.9798267	-2.3126789	2.3443743
O	7.0465900	-0.3929190	-0.2462033
H	6.5115603	1.4278290	0.4809780
C	6.2061335	0.4038097	0.1862175
C	4.7307726	0.1045469	0.3610618
C	4.3601060	-1.2986473	-0.1362041
H	4.5222020	-1.3810702	-1.2167255
H	3.3066692	-1.5148026	0.0714505
H	4.9761120	-2.0635769	0.3456183
C	3.8919389	1.2195004	-0.3093202
H	4.5450732	0.1660961	1.4486331
H	4.1810712	2.2145673	0.0499038
H	2.8287453	1.0771889	-0.0903260
H	4.0198573	1.1991735	-1.3979183
