37
-0.0050347 (energy)
C	0.1584871	-2.1163640	1.3283200
O	-0.3532255	-2.7678025	2.2425866
O	1.5174522	-2.1265588	1.0926185
H	1.9709772	-2.6750172	1.7698602
N	-0.0000000	-0.0000000	-0.0000000
C	-0.5119103	0.9513202	2.1679496
H	-0.9429733	0.0422193	2.5677788
H	-0.4965463	1.8083876	2.8289023
C	0.0017186	1.0531210	0.9184818
C	0.6205540	2.3441091	0.4288399
H	0.1350407	2.7071016	-0.4858118
H	0.5248359	3.1182902	1.1927372
H	1.6880295	2.2215915	0.2056209
C	0.5125000	-1.4083348	-1.8446699
C	0.5978682	0.0491024	-1.3490172
C	-0.6155411	-1.2837651	0.3097536
C	-0.6861261	-1.9951253	-1.0698329
H	0.3781365	-1.4685557	-2.9288279
H	1.4275510	-1.9464560	-1.5806078
H	0.0342212	0.7268608	-2.0082743
H	1.6349128	0.4007936	-1.3167677
H	-1.6133587	-1.1481543	0.7429788
H	-0.6526257	-3.0851444	-0.9854871
H	-1.6323178	-1.7248616	-1.5523406
O	2.5302319	-1.4499840	3.6298965
H	3.1837520	0.0539241	4.8304566
C	2.8487482	-0.9984928	4.7357150
C	2.8251294	-1.7783278	6.0349910
C	2.2799144	-3.2001969	5.8488458
H	1.2303807	-3.1736644	5.5352058
H	2.3451209	-3.7632082	6.7860432
H	2.8377268	-3.7388608	5.0772111
C	2.0515564	-0.9750638	7.1085491
H	3.8784650	-1.8326901	6.3645552
H	2.4482198	0.0416612	7.2168354
H	2.1268649	-1.4722708	8.0810230
H	0.9896069	-0.9009961	6.8466345
