37
-0.0037068 (energy)
C	-0.4010449	0.1708290	-0.2262342
O	0.5539841	0.1163826	-1.0053750
O	-0.2917131	-0.2098813	1.0949590
H	0.6127427	-0.5501386	1.2719687
N	-2.8858613	-0.0663355	-0.0313262
C	-2.5082068	-1.9374656	-1.5224054
H	-1.6241689	-1.5126832	-1.9808594
H	-2.8196470	-2.9085744	-1.8851887
C	-3.2111015	-1.3273575	-0.5379995
C	-4.4209471	-1.9882298	0.0856015
H	-5.3165843	-1.3598340	0.0017734
H	-4.6264273	-2.9381731	-0.4118349
H	-4.2645636	-2.1936788	1.1522205
C	-2.7120532	1.8440658	1.3718943
C	-3.5883405	0.6102697	1.0770209
C	-1.7834514	0.7154308	-0.5757753
C	-2.0070488	2.1290859	0.0290866
H	-3.3027450	2.6959151	1.7219153
H	-1.9708204	1.6006271	2.1386622
H	-4.6056574	0.9071726	0.7793814
H	-3.6736297	-0.0391776	1.9551621
H	-1.8190185	0.7373058	-1.6712071
H	-1.0763267	2.6924122	0.1422152
H	-2.6622517	2.6950791	-0.6428477
O	3.4076952	2.2067714	-4.9142351
H	2.7844682	0.2724289	-4.9231840
C	3.1277875	1.1493233	-4.3383994
C	3.2117932	0.9232169	-2.8421918
C	3.7658702	2.1464718	-2.1003917
H	4.8018284	2.3426952	-2.3985228
H	3.7442977	1.9824354	-1.0177102
H	3.1843995	3.0441402	-2.3302107
C	4.0176525	-0.3672214	-2.5566480
H	2.1729909	0.7382395	-2.5139281
H	3.6136785	-1.2262263	-3.1059321
H	3.9866068	-0.6046079	-1.4883430
H	5.0674995	-0.2403813	-2.8457066
