37
-0.00345688 (energy)
C	-1.4836228	-1.2243966	1.6025808
O	-2.5320936	-1.1588374	2.2495092
O	-0.3725173	-1.8924779	2.0732792
H	-0.5480688	-2.2412634	2.9747659
N	-0.0000000	-0.0000000	-0.0000000
C	-0.5593398	1.8860559	1.4131524
H	-1.5241254	1.4950967	1.7106129
H	-0.2828924	2.8492241	1.8224726
C	0.2923634	1.2349472	0.5848972
C	1.6424416	1.8199735	0.2322077
H	1.7665474	1.9327989	-0.8522013
H	1.7545691	2.8048950	0.6898260
H	2.4637145	1.1866161	0.5909697
C	0.2014850	-2.1213568	-1.0526724
C	0.9188933	-0.7701046	-0.8615561
C	-1.2857188	-0.6555923	0.2000425
C	-1.2923926	-1.7778234	-0.8745864
H	0.4134751	-2.5669110	-2.0292073
H	0.5180306	-2.8248497	-0.2770964
H	1.0762838	-0.2636533	-1.8261335
H	1.8987268	-0.9004529	-0.3891962
H	-2.1138368	0.0471996	0.0516567
H	-1.9006193	-2.6387980	-0.5827625
H	-1.7116947	-1.3694212	-1.8011543
O	0.3956052	1.7410235	-2.7174854
H	-0.3495714	3.1529739	-1.4599956
C	-0.4679214	2.5631577	-2.3910676
C	-1.7310566	2.8578458	-3.1749470
C	-1.7969268	2.0676520	-4.4882924
H	-0.9883069	2.3708340	-5.1626882
H	-2.7519111	2.2425234	-4.9952416
H	-1.6871519	0.9941124	-4.3088610
C	-1.8662187	4.3853079	-3.3865268
H	-2.5637432	2.5445348	-2.5195440
H	-1.8035891	4.9321444	-2.4379253
H	-2.8306799	4.6198572	-3.8484715
H	-1.0742128	4.7565346	-4.0473894
