37
-0.00462441 (energy)
C	1.8609901	1.3778022	1.0919557
O	2.2361692	2.4686650	1.5294077
O	2.2787691	0.1842870	1.6427981
H	2.9200347	0.3556878	2.3670549
N	1.2071065	0.1298944	-0.9777572
C	3.0644909	1.3609121	-1.9273816
H	2.9719966	2.2021676	-1.2521948
H	3.8561226	1.4187033	-2.6633425
C	2.2624603	0.2699878	-1.8828969
C	2.4633580	-0.8891411	-2.8344308
H	1.5573821	-1.0996834	-3.4166286
H	3.2703313	-0.6632173	-3.5342950
H	2.7294387	-1.8097680	-2.2996522
C	-0.4934414	-0.7860450	0.4071838
C	0.3452014	-1.0626471	-0.8566405
C	0.8565266	1.1901711	-0.0419163
C	-0.5340168	0.7539845	0.4969758
H	-1.4929237	-1.2266513	0.3440962
H	0.0098369	-1.1983593	1.2865753
H	-0.2975550	-1.1791664	-1.7426211
H	0.9377043	-1.9780971	-0.7513801
H	0.8043572	2.1612141	-0.5479482
H	-0.7295751	1.1215473	1.5084266
H	-1.3068455	1.1628448	-0.1638599
O	3.2260260	2.2336762	3.9673938
H	2.5475434	3.9972387	3.2192752
C	3.0315476	3.4513908	4.0538858
C	3.4070274	4.3113992	5.2439358
C	4.0000382	3.4856619	6.3928994
H	3.2549529	2.7887668	6.7926246
H	4.3308088	4.1400893	7.2064645
H	4.8532106	2.8915549	6.0525067
C	2.1851811	5.1556509	5.6804056
H	4.1721212	5.0148888	4.8686791
H	1.7687132	5.7277142	4.8424941
H	2.4747037	5.8647917	6.4626381
H	1.3932202	4.5125114	6.0816432
