37
-0.00335385 (energy)
C	-0.3142433	-0.8707198	2.3868574
O	-0.9640535	-1.5697684	3.1686394
O	1.0474518	-0.6952524	2.5189292
H	1.3692510	-1.1618806	3.3213326
N	-0.3826224	1.1769648	0.9478089
C	-1.5775860	2.0885059	2.8473411
H	-1.9786631	1.1358447	3.1693922
H	-1.8517989	2.9517441	3.4400351
C	-0.7645378	2.2372959	1.7739531
C	-0.2096068	3.5925691	1.3936337
H	-0.4740395	3.8665878	0.3645255
H	-0.6067765	4.3601787	2.0607837
H	0.8850985	3.6163108	1.4671037
C	0.7852068	-0.1807691	-0.6147543
C	0.5444286	1.2834670	-0.1962796
C	-0.8869649	-0.1741269	1.1553680
C	-0.4910678	-0.9145417	-0.1520440
H	0.9563631	-0.2798499	-1.6908432
H	1.6572658	-0.5804962	-0.0890616
H	0.0959304	1.8630428	-1.0176294
H	1.4799049	1.7772852	0.0887047
H	-1.9733681	-0.1711605	1.3017705
H	-0.3404666	-1.9873551	-0.0011503
H	-1.2993704	-0.7885108	-0.8813574
O	-0.8267552	-4.4607790	1.2450457
H	-2.1829624	-3.3372838	0.2308300
C	-1.9608494	-3.9914630	1.0977211
C	-3.1318524	-4.2337479	2.0287788
C	-2.7809625	-5.2066122	3.1619304
H	-2.5498332	-6.1997644	2.7609029
H	-3.6197188	-5.3035805	3.8595390
H	-1.9017953	-4.8657876	3.7165810
C	-4.3626367	-4.6884458	1.2074413
H	-3.3743970	-3.2454963	2.4596091
H	-4.5885676	-3.9868765	0.3953125
H	-5.2450196	-4.7541562	1.8521694
H	-4.1903215	-5.6771375	0.7662857
