37
-0.00283751 (energy)
C	-1.8609901	1.7573533	0.0491475
O	-2.2361691	2.8741915	0.4152328
O	-2.2787691	1.1971422	-1.1399990
H	-2.9200347	1.7939861	-1.5846376
N	-1.2071065	-0.5289852	0.8325001
C	-3.0644908	-0.1963775	2.3512376
H	-2.9719965	0.8820633	2.3747630
H	-3.8561225	-0.6251734	2.9521639
C	-2.2624602	-1.0034799	1.6159278
C	-2.4633579	-2.5030584	1.5997715
H	-1.5573821	-3.0385726	1.9104269
H	-3.2703313	-2.7798546	2.2811197
H	-2.7294388	-2.8645505	0.5983398
C	0.4934414	-0.3404128	-0.8171809
C	-0.3452015	-1.3646728	-0.0268315
C	-0.8565266	0.8847808	0.7971370
C	0.5340168	0.8970355	0.1039462
H	1.4929237	-0.7184888	-1.0520692
H	-0.0098370	-0.0910020	-1.7558643
H	0.2975550	-2.0234291	0.5769719
H	-0.9377044	-1.9982882	-0.6959055
H	-0.8043570	1.3033719	1.8089542
H	0.7295751	1.8287530	-0.4346054
H	1.3068455	0.7854638	0.8729861
O	-2.4296897	7.7490989	2.0459428
H	-2.8766943	5.9591022	1.1937273
C	-2.1117172	6.6254242	1.6405044
C	-0.7140901	6.0420668	1.6966390
C	0.3097346	7.0402305	2.2525826
H	0.4084860	7.9042010	1.5859505
H	1.2928985	6.5679492	2.3521408
H	0.0015566	7.4172612	3.2321783
C	-0.3231372	5.4959383	0.3019796
H	-0.7843997	5.1751655	2.3782712
H	-1.0736389	4.7948782	-0.0828053
H	0.6348223	4.9687473	0.3565227
H	-0.2192788	6.3146950	-0.4195970
