37
-0.00271527 (energy)
C	-0.4010449	0.0145580	0.2831122
O	0.5539841	0.5570884	0.8449712
O	-0.2917131	-0.5430477	-0.9736964
H	0.6127427	-0.3961751	-1.3280068
N	-2.8858613	0.0709520	-0.0186424
C	-2.5082068	2.4627680	-0.0791488
H	-1.6241689	2.4320545	0.5450922
H	-2.8196470	3.4398732	-0.4254574
C	-3.2111015	1.3626342	-0.4410775
C	-4.4209471	1.4680488	-1.3435841
H	-5.3165843	1.0405533	-0.8754429
H	-4.6264273	2.5154935	-1.5731376
H	-4.2645636	0.9398223	-2.2927217
C	-2.7120532	-2.2944730	0.1344108
C	-3.5883405	-1.1597894	-0.4327720
C	-1.7834514	-0.1779505	0.9009396
C	-2.0070488	-1.6496709	1.3462685
H	-3.3027450	-3.1720166	0.4138373
H	-1.9708204	-2.6008571	-0.6094470
H	-4.6056574	-1.1959113	-0.0139214
H	-3.6736297	-1.2267422	-1.5229239
H	-1.8190185	0.5094223	1.7541499
H	-1.0763267	-2.1539215	1.6217062
H	-2.6622517	-1.6513357	2.2248134
O	3.8258879	4.6680492	1.1540518
H	2.7894897	4.5100887	-0.5869536
C	3.2072496	4.0101623	0.3098937
C	2.9519690	2.5181196	0.3837779
C	3.6205152	1.8745377	1.6054446
H	4.7110900	1.9548931	1.5362718
H	3.3570579	0.8136670	1.6741199
H	3.3145300	2.3719300	2.5304891
C	3.3716645	1.8530210	-0.9495168
H	1.8555412	2.4112809	0.4704695
H	2.8933596	2.3356135	-1.8104037
H	3.0850878	0.7963957	-0.9524246
H	4.4578875	1.9103894	-1.0860834
