37
-0.00709024 (energy)
C	0.3039360	1.8940223	-2.0324007
O	0.9054908	1.8709057	-3.1028505
O	-0.8140231	2.6650225	-1.8400885
H	-1.0750307	2.6034668	-0.8885387
N	0.1440958	1.5275428	0.4324297
C	1.7760901	3.3342440	0.4505091
H	2.2026075	3.0757749	-0.5103754
H	2.1763365	4.2193900	0.9284588
C	0.7790768	2.6433952	1.0420945
C	0.2097341	3.0643608	2.3790516
H	0.4459441	2.3479743	3.1760868
H	0.6226047	4.0313388	2.6739055
H	-0.8827895	3.1569758	2.3375271
C	-0.1470857	-0.8545826	0.4819644
C	-0.4871740	0.4407234	1.2453127
C	0.6695687	1.0003016	-0.8444982
C	-0.0016962	-0.3917714	-0.9795815
H	0.8039382	-1.2640129	0.8428782
H	-0.9135378	-1.6250165	0.6072727
H	-0.0885018	0.4265233	2.2627728
H	-1.5719768	0.5925880	1.3116399
H	1.7631346	0.9028911	-0.8252702
H	-0.9878730	-0.2855990	-1.4480542
H	0.5945944	-1.0652885	-1.5986270
O	3.4624349	-1.2244616	-2.2870376
H	2.3296674	0.0854641	-3.3505718
C	2.9581248	-0.8276501	-3.3436092
C	3.1221722	-1.4976947	-4.6930340
C	4.0634534	-2.7074986	-4.6299029
H	5.0788531	-2.3936253	-4.3633659
H	4.1033226	-3.2151918	-5.5995579
H	3.7340183	-3.4247115	-3.8723994
C	3.5626585	-0.4491458	-5.7431256
H	2.1101205	-1.8384263	-4.9771765
H	2.8846598	0.4126612	-5.7632233
H	3.5717335	-0.8950540	-6.7429632
H	4.5729882	-0.0835358	-5.5254441
