37
-0.00575392 (energy)
C	3.2752779	1.9966112	-1.0838269
O	4.0964525	2.8551033	-0.7724927
O	2.4146689	2.1587136	-2.1394465
H	1.7861602	1.3956633	-2.1490363
N	1.8766780	-0.0153973	-0.6032179
C	0.7927378	1.5396573	0.9247809
H	1.6862497	2.1247651	1.1017211
H	-0.1113395	1.8905718	1.4060498
C	0.7519740	0.4487098	0.1314004
C	-0.5323775	-0.3185920	-0.0933364
H	-0.5043945	-1.3182437	0.3585303
H	-1.3723255	0.2192071	0.3513062
H	-0.7379771	-0.4502530	-1.1630578
C	3.5390428	-1.7357166	-0.8002111
C	2.0330927	-1.4568592	-0.9749422
C	3.1919953	0.6282625	-0.4024884
C	4.1967546	-0.3647360	-1.0436779
H	3.7417737	-2.0733580	0.2231349
H	3.9019661	-2.5066126	-1.4863055
H	1.4261063	-2.0985687	-0.3314030
H	1.7135506	-1.6221566	-2.0116817
H	3.4161079	0.7725053	0.6627405
H	4.2817954	-0.1658306	-2.1190795
H	5.1913657	-0.2679048	-0.6034761
O	2.9806614	-1.2248748	2.2183070
H	1.5610832	-0.3298326	3.3645487
C	2.4914718	-0.9303977	3.3147141
C	3.0650786	-1.3281715	4.6599166
C	4.3051453	-2.2207159	4.5212797
H	4.0437364	-3.1750637	4.0506623
H	4.7410126	-2.4294222	5.5041500
H	5.0655463	-1.7452435	3.8948216
C	1.9563271	-1.9723208	5.5270481
H	3.3520672	-0.3798867	5.1492808
H	1.0745608	-1.3245944	5.6027861
H	2.3274188	-2.1573819	6.5402781
H	1.6395889	-2.9315649	5.1011963
