37
-0.00505143 (energy)
C	0.8315450	1.4064431	-2.8064094
O	0.4708144	0.8214502	-3.8242120
O	2.1474921	1.4608332	-2.4235483
H	2.1962375	1.8947444	-1.5365838
N	0.4170873	2.4094570	-0.5575356
C	0.0204879	0.0774270	0.0188729
H	-0.3358388	-0.1962200	-0.9660997
H	0.0918927	-0.7256902	0.7413828
C	0.3974397	1.3267378	0.3629815
C	0.9059243	1.6454588	1.7517500
H	0.2125382	2.2854007	2.3120713
H	1.0366756	0.7240588	2.3230411
H	1.8715027	2.1652766	1.7149065
C	-0.6204871	4.4743972	-1.2065525
C	0.2461461	3.8270175	-0.1083609
C	-0.1202142	2.2145583	-1.9206099
C	-0.2856882	3.6567408	-2.4678203
H	-1.6830818	4.3651631	-0.9589663
H	-0.4116004	5.5414824	-1.3266148
H	-0.2387703	3.8753840	0.8698431
H	1.2215657	4.3228119	-0.0246716
H	-1.0860419	1.6923305	-1.9064677
H	0.6594710	3.9989831	-2.9069426
H	-1.0540478	3.7053093	-3.2422037
O	4.5808482	-1.6013107	-5.9397298
H	2.6168049	-1.2262975	-5.5763134
C	3.6474193	-1.3210477	-5.1792729
C	3.7794738	-1.0833031	-3.6883478
C	5.2133129	-1.3051431	-3.1898365
H	5.5100312	-2.3518850	-3.3197779
H	5.2945441	-1.0535922	-2.1269648
H	5.9252302	-0.6920293	-3.7501924
C	2.7409509	-1.9460137	-2.9311319
H	3.4998137	-0.0255537	-3.5332991
H	1.7252017	-1.7823972	-3.3109749
H	2.7469570	-1.6971598	-1.8650046
H	2.9754489	-3.0121498	-3.0320601
