37
-0.00440855 (energy)
C	1.0478876	-2.4926160	1.7984105
O	1.3256904	-3.5170509	1.1806533
O	-0.0529582	-2.4069815	2.6120831
H	-0.1338188	-1.4742781	2.9297102
N	1.2009545	-0.0330877	2.2015685
C	0.0213410	0.0321375	0.0726817
H	0.4585361	-0.8866078	-0.2971697
H	-0.7126400	0.5039524	-0.5682387
C	0.3174392	0.5778938	1.2709124
C	-0.3410016	1.8556441	1.7427462
H	0.3663158	2.6929445	1.7965982
H	-1.1376885	2.1428043	1.0533431
H	-0.7794691	1.7348430	2.7412766
C	3.3538638	0.0834965	3.2566285
C	1.9766552	0.7732627	3.1958242
C	1.9421407	-1.2501449	1.8090576
C	3.0475915	-1.3803983	2.8896704
H	4.0274784	0.5244852	2.5122424
H	3.8264493	0.1833822	4.2381606
H	2.0606581	1.8158264	2.8790106
H	1.4785373	0.7583408	4.1735333
H	2.3867536	-1.1513225	0.8099088
H	2.6552050	-1.9199241	3.7604336
H	3.9121078	-1.9313144	2.5134948
O	3.8812507	-0.4947299	-0.8098190
H	3.0699625	-1.0621177	-2.5846585
C	3.9017730	-1.1508064	-1.8573275
C	5.0033965	-2.1088594	-2.2639952
C	6.1585756	-2.1273915	-1.2546196
H	6.6549952	-1.1512863	-1.2174541
H	6.9020717	-2.8814167	-1.5343200
H	5.7977141	-2.3487512	-0.2459015
C	5.4698481	-1.7826272	-3.7034988
H	4.5294745	-3.1066745	-2.2930943
H	4.6282284	-1.7615016	-4.4063696
H	6.1815295	-2.5382809	-4.0514769
H	5.9676079	-0.8064662	-3.7376597
