37
-0.00418745 (energy)
C	-2.3060263	-0.6478453	-0.7055383
O	-3.4512088	-0.3879778	-1.0651092
O	-1.9677395	-1.8642465	-0.1696392
H	-1.0275580	-1.8207969	0.1329033
N	0.0000000	0.0000000	-0.0000000
C	-1.2128888	0.8633416	1.9265107
H	-2.1181175	1.0749035	1.3716908
H	-1.2497772	1.0536020	2.9916664
C	-0.0904454	0.3592913	1.3721326
C	1.1393898	0.0658699	2.2029314
H	1.9735785	0.7372995	1.9629701
H	0.9127297	0.1901835	3.2638832
H	1.4924307	-0.9611509	2.0464068
C	0.9477159	0.5580184	-2.1335912
C	1.3043852	0.0195832	-0.7339296
C	-1.1259021	0.3061568	-0.9073381
C	-0.5208545	0.1363076	-2.3257104
H	1.0295639	1.6513893	-2.1469873
H	1.6065649	0.1623573	-2.9121090
H	2.0321732	0.6592379	-0.2284271
H	1.7276081	-0.9913354	-0.7903676
H	-1.4969471	1.3297013	-0.7644143
H	-0.5808442	-0.9151437	-2.6325251
H	-1.0587117	0.7340447	-3.0645102
O	2.3065734	2.7431465	0.8895886
H	3.0580730	3.6363247	-0.7740382
C	2.6964645	3.7385251	0.2688325
C	2.7302232	5.1503752	0.8187034
C	2.1459418	5.2360682	2.2346460
H	1.0811184	4.9777646	2.2296010
H	2.2523761	6.2502524	2.6342393
H	2.6478874	4.5385208	2.9115593
C	2.0354896	6.1116252	-0.1760422
H	3.7991649	5.4288580	0.8486154
H	2.4586711	6.0255664	-1.1841636
H	2.1553703	7.1488754	0.1530966
H	0.9621872	5.8968429	-0.2369734
