37
-0.00621719 (energy)
C	1.3268418	-0.0214918	-2.1307519
O	1.4902245	-0.6259158	-3.1895574
O	1.4448004	1.3430869	-2.0909797
H	1.3395120	1.7350586	-1.1880099
N	0.0000000	0.0000000	-0.0000000
C	1.5790320	1.5781611	0.9567635
H	2.4617241	1.1235533	0.5218199
H	1.7513098	2.4234561	1.6093112
C	0.3191939	1.0729620	0.8222364
C	-0.8444933	1.7090916	1.5514761
H	-1.3356417	0.9916485	2.2200438
H	-0.4971228	2.5492190	2.1551880
H	-1.6047164	2.0802950	0.8539135
C	-1.1599583	-1.7657639	-1.0978542
C	-1.3278739	-0.6604434	-0.0370489
C	1.0023098	-0.7357845	-0.7967286
C	0.3442089	-2.1056400	-1.0426102
H	-1.7988775	-2.6295465	-0.8946518
H	-1.4169500	-1.3831116	-2.0921495
H	-1.5743484	-1.0900396	0.9449736
H	-2.1192658	0.0481616	-0.3028188
H	1.9391978	-0.8362810	-0.2304012
H	0.7145811	-2.5610006	-1.9620339
H	0.5600288	-2.7730684	-0.2008874
O	3.9422288	-1.9450248	-0.4184014
H	5.2904997	-0.8411756	-1.4642769
C	4.9374713	-1.8420821	-1.1443675
C	5.7607737	-3.0034811	-1.6641214
C	5.2680868	-4.3521422	-1.1237569
H	5.3940342	-4.4021095	-0.0364503
H	5.8317348	-5.1762834	-1.5739401
H	4.2049110	-4.4978075	-1.3362947
C	7.2592200	-2.7505040	-1.3694410
H	5.6365714	-2.9839817	-2.7619727
H	7.5878905	-1.7766614	-1.7520683
H	7.8739127	-3.5237358	-1.8415184
H	7.4516002	-2.7758461	-0.2904740
