37
-0.00355716 (energy)
C	-1.3268416	-0.7489558	1.9949012
O	-1.4902243	-1.6790613	2.7831278
O	-1.4448003	0.5469316	2.4242411
H	-1.3395119	1.2240985	1.7097892
N	0.0000000	0.0000000	-0.0000000
C	-1.5790320	1.8102187	-0.3593006
H	-2.4617241	1.2342676	-0.1060723
H	-1.7513099	2.8277206	-0.6833870
C	-0.3191940	1.2894759	-0.4056749
C	0.8444933	2.1366568	-0.8733670
H	1.3356416	1.6911445	-1.7469951
H	0.4971227	3.1326000	-1.1533301
H	1.6047163	2.2468935	-0.0909135
C	1.1599584	-2.0347635	0.4277186
C	1.3278739	-0.6332853	-0.1910704
C	-1.0023097	-0.9639085	0.4970269
C	-0.3442088	-2.3352481	0.2595618
H	1.7988775	-2.7769543	-0.0586603
H	1.4169501	-2.0152570	1.4929254
H	1.5743484	-0.7011022	-1.2608003
H	2.1192658	-0.0583130	0.3010287
H	-1.9391977	-0.8646489	-0.0695186
H	-0.7145810	-3.0776085	0.9677951
H	-0.5600288	-2.6745395	-0.7596728
O	3.2168768	1.5533810	-3.0601588
H	3.8235242	-0.0733303	-4.1165499
C	3.6994201	1.0271935	-4.0693220
C	4.1592947	1.7731981	-5.3057729
C	3.8895468	3.2803057	-5.2083875
H	2.8127654	3.4780542	-5.1633036
H	4.2992310	3.8017819	-6.0800492
H	4.3373677	3.7037651	-4.3045777
C	3.5275417	1.1308824	-6.5645398
H	5.2493451	1.6016101	-5.3643509
H	3.7207200	0.0522026	-6.6084637
H	3.9419884	1.5853172	-7.4702521
H	2.4420367	1.2838706	-6.5743165
