37
-0.00323838 (energy)
C	1.7121090	-0.4923188	1.8025849
O	1.1519025	-0.3682743	2.8906441
O	2.7521517	-1.3728815	1.6594356
H	3.1669296	-1.3709562	0.7605264
N	1.3308643	-0.4910765	-0.6784886
C	3.7258050	-0.3044158	-1.0373027
H	3.9044273	0.3787522	-0.2148885
H	4.5853897	-0.5528186	-1.6451120
C	2.4886265	-0.7487634	-1.4012534
C	2.3155440	-1.6164121	-2.6291979
H	1.6406650	-1.1479930	-3.3558724
H	3.2786216	-1.7752892	-3.1172431
H	1.8946270	-2.5966668	-2.3757132
C	-0.9441744	-0.3485907	0.0089746
C	-0.0375740	-0.8291505	-1.1409708
C	1.3092714	0.3253452	0.5518649
C	-0.1489766	0.8095654	0.6472705
H	-1.9308936	-0.0410044	-0.3479639
H	-1.0862064	-1.1494117	0.7435517
H	-0.2722084	-0.2998658	-2.0761046
H	-0.1426696	-1.9032071	-1.3264786
H	2.0075210	1.1695559	0.4605348
H	-0.4322252	1.0042930	1.6825098
H	-0.2692401	1.7296163	0.0645362
O	2.6245627	0.7628808	9.1800699
H	0.7559104	0.3616227	8.4891986
C	1.8389005	0.4610655	8.2746562
C	2.2286371	0.2016767	6.8332537
C	3.7253344	0.4308632	6.5862877
H	3.9870427	1.4825580	6.7476629
H	3.9910923	0.1637607	5.5578901
H	4.3343125	-0.1659718	7.2716103
C	1.3301090	1.0415778	5.8933662
H	1.9881564	-0.8612327	6.6502880
H	0.2652640	0.8731712	6.0947162
H	1.5223199	0.7763291	4.8487181
H	1.5354049	2.1115590	6.0150866
