37
-0.00331883 (energy)
C	0.6072728	0.6771325	3.3999270
O	0.9843435	0.6862904	4.5707495
O	-0.5053878	-0.0369655	3.0398970
H	-0.7047890	-0.0193761	2.0703549
N	0.4151605	2.0806783	1.3276754
C	-0.0142056	0.0781128	0.0220312
H	0.6965046	-0.5479382	0.5492320
H	-0.5273604	-0.3821374	-0.8115537
C	-0.1908656	1.4067278	0.2751889
C	-1.1272394	2.2328895	-0.5799606
H	-0.5983188	3.0654390	-1.0595836
H	-1.5648942	1.6143774	-1.3653583
H	-1.9439729	2.6616924	0.0128286
C	1.1711804	3.7806044	2.8134056
C	0.3609012	3.5502996	1.5228073
C	1.3485948	1.4348237	2.2723195
C	2.1727066	2.6069151	2.8354362
H	1.6612504	4.7580522	2.8209288
H	0.5163823	3.7252806	3.6904857
H	0.8202100	4.0714792	0.6701186
H	-0.6714871	3.9030410	1.6166337
H	1.9868191	0.7130449	1.7428947
H	2.5461912	2.3811342	3.8351368
H	3.0221410	2.8098489	2.1737602
O	2.2801737	-2.1718262	0.1885092
H	2.4541724	-3.4296515	-1.3982399
C	2.0364461	-3.2369057	-0.3897070
C	1.1832371	-4.3571548	0.1705563
C	0.7007887	-4.0618993	1.5966309
H	1.5494221	-4.0027525	2.2872235
H	0.0267749	-4.8512830	1.9461324
H	0.1735185	-3.1046011	1.6445876
C	1.9499120	-5.6975415	0.0621659
H	0.3094147	-4.4260234	-0.5023295
H	2.2970455	-5.8833190	-0.9614466
H	1.3014554	-6.5295890	0.3550696
H	2.8236004	-5.6988473	0.7243509
