37
-0.00284987 (energy)
C	-1.3268416	1.3860845	-1.6184361
O	-1.4902243	2.5296872	-2.0410120
O	-1.4448003	0.3151915	-2.4651031
H	-1.3395119	-0.5654941	-2.0253426
N	0.0000000	0.0000000	0.0000000
C	-1.5790320	-1.8239372	-0.2814990
H	-2.4617241	-1.1961110	-0.3224690
H	-1.7513099	-2.8909203	-0.3249635
C	-0.3191940	-1.3504599	-0.0598170
C	0.8444933	-2.3065097	0.0899170
H	1.3356416	-2.1866634	1.0632330
H	0.4971227	-3.3381433	0.0123637
H	1.6047163	-2.1424835	-0.6830520
C	1.1599584	2.0583407	0.2940060
C	1.3278739	0.5297436	0.3961437
C	-1.0023097	1.0757709	-0.1373765
C	-0.3442088	2.2831908	0.5547934
H	1.7988775	2.5894205	1.0048968
H	1.4169501	2.4043326	-0.7136326
H	1.5743484	0.2276015	1.4245558
H	2.1192658	0.1577542	-0.2629302
H	-1.9391977	0.7887275	0.3610534
H	-0.7145810	3.2230115	0.1431740
H	-0.5600288	2.2534217	1.6286052
O	-3.7396595	5.7921715	-6.2170690
H	-3.0864411	4.2839057	-7.4123149
C	-3.0509811	4.7869047	-6.4251375
C	-2.1196475	4.1446948	-5.4166720
C	-2.0573318	4.9311659	-4.1009208
H	-1.6271663	5.9254619	-4.2650195
H	-1.4378967	4.4048474	-3.3668489
H	-3.0563523	5.0733282	-3.6784502
C	-0.7259454	3.9354013	-6.0569577
H	-2.5428253	3.1426394	-5.2220202
H	-0.7938218	3.3830692	-7.0020077
H	-0.0793698	3.3679052	-5.3798463
H	-0.2435560	4.8989497	-6.2586929
