37
-0.00269211 (energy)
C	0.3847926	-0.0666579	0.2640572
O	-0.5213833	0.3683207	0.9730919
O	0.1730909	-0.2761923	-1.0734213
H	0.9459922	-0.6684605	-1.5517845
N	2.8667779	-0.0069414	-0.1064254
C	2.6887431	-1.9509809	-1.5515361
H	1.9409069	-2.4601641	-0.9544908
H	3.0471039	-2.4842191	-2.4217409
C	3.2666733	-0.7671415	-1.1979310
C	4.3812005	-0.1771975	-2.0348388
H	5.2964856	-0.0474457	-1.4446256
H	4.6116617	-0.8358891	-2.8738629
H	4.1083498	0.8058923	-2.4365994
C	2.7419944	1.6603942	1.5886056
C	3.5833422	1.1960077	0.3837340
C	1.7879673	-0.4175261	0.8146436
C	2.0911012	0.3611513	2.1076363
H	3.3513622	2.1624132	2.3450956
H	1.9637964	2.3604566	1.2639343
H	4.6068071	0.9380302	0.6929878
H	3.6499932	1.9653615	-0.3926088
H	1.8235699	-1.5034559	0.9821976
H	1.1815046	0.5379452	2.6831767
H	2.7979187	-0.2078504	2.7217879
O	5.3374411	-0.6365435	2.9072746
H	4.2672185	0.1290058	4.4560582
C	5.2370882	-0.2518276	4.0777679
C	6.3616766	-0.2495717	5.0936982
C	7.6526610	-0.8590978	4.5320412
H	7.5088002	-1.9194980	4.2965617
H	8.4664326	-0.7753933	5.2602871
H	7.9564199	-0.3578425	3.6083491
C	5.8876626	-0.9423010	6.3943181
H	6.5368934	0.8142065	5.3361000
H	4.9574499	-0.5007548	6.7718613
H	6.6490910	-0.8443186	7.1748422
H	5.7131546	-2.0109112	6.2227338
