37
-0.00266136 (energy)
C	3.4247479	1.8386071	-1.1467283
O	4.4929104	2.0773247	-1.7080964
O	2.3523891	2.6733465	-1.3223064
H	1.5514485	2.4238959	-0.7966157
N	1.9012606	-0.0133869	-0.4049877
C	0.6807810	1.5598691	0.9859205
H	1.5538627	2.1115679	1.3150808
H	-0.2655303	1.8702376	1.4080441
C	0.7363037	0.4534934	0.1900778
C	-0.5222732	-0.3215832	-0.1352836
H	-0.4458119	-1.3635064	0.1986082
H	-1.3821572	0.1297163	0.3625886
H	-0.7204556	-0.3368425	-1.2136228
C	3.4808830	-1.3375443	-1.5966712
C	2.0096127	-1.2977453	-1.1394879
C	3.2200907	0.6223533	-0.2118512
C	4.2216560	-0.5022664	-0.5314703
H	3.8588944	-2.3607079	-1.6733057
H	3.5884597	-0.8641709	-2.5792371
H	1.7795007	-2.1440882	-0.4758443
H	1.3148210	-1.3342880	-1.9850557
H	3.3258889	0.9714937	0.8252086
H	5.1690672	-0.0960679	-0.8882387
H	4.4047333	-1.0979857	0.3697163
O	3.5248077	-3.8526269	1.2614924
H	4.5620643	-4.1800759	-0.4552046
C	4.1418967	-4.5903978	0.4849443
C	4.3922647	-6.0692804	0.7018324
C	3.8546184	-6.5570293	2.0533718
H	4.3880594	-6.0728619	2.8789732
H	3.9816022	-7.6406143	2.1497634
H	2.7931130	-6.3175093	2.1654878
C	5.8975945	-6.3745844	0.5096167
H	3.8490220	-6.5820502	-0.1124393
H	6.2648151	-6.0067123	-0.4561041
H	6.0730440	-7.4545391	0.5484359
H	6.4923845	-5.9054685	1.3020668
