37
-0.00244468 (energy)
C	0.2966864	-0.3488600	-0.1118424
O	-0.5472527	-0.7732301	0.6760460
O	0.2644104	0.9595665	-0.5174892
H	0.9563159	1.1965233	-1.1847226
N	2.7100338	-0.5284771	-0.7786005
C	2.2140435	0.6334947	-2.8530030
H	1.2583875	0.1501763	-3.0206767
H	2.5416621	1.3201338	-3.6219078
C	3.0473012	0.3308881	-1.8163611
C	4.4124741	0.9764729	-1.7156510
H	5.2100607	0.2236192	-1.7167459
H	4.5774152	1.6435545	-2.5634393
H	4.5159728	1.5620360	-0.7943864
C	2.7967700	-1.9039146	1.1628829
C	3.6558731	-0.9907181	0.2666405
C	1.4171570	-1.2380413	-0.7026514
C	1.7115377	-2.4438974	0.2080131
H	3.3887181	-2.6978952	1.6263713
H	2.3283823	-1.3213223	1.9643128
H	4.4883175	-1.5504212	-0.1844021
H	4.0791482	-0.1481014	0.8233191
H	1.1003087	-1.5597429	-1.7049990
H	0.8107393	-2.7748025	0.7266004
H	2.1021655	-3.2719101	-0.3939345
O	5.1496572	3.7197902	-0.3213422
H	3.6703803	4.9476732	-0.9802931
C	4.7491325	4.6927677	-0.9702077
C	5.6285813	5.6142768	-1.7913103
C	7.1154360	5.2551361	-1.6734025
H	7.4670977	5.3976732	-0.6454860
H	7.7177772	5.8876271	-2.3342450
H	7.2904400	4.2076953	-1.9360333
C	5.3351051	7.0860651	-1.4119870
H	5.3027175	5.4761836	-2.8381278
H	4.2661665	7.3185100	-1.4903257
H	5.8778962	7.7644003	-2.0781934
H	5.6547692	7.2923625	-0.3838439
