37
-0.00414472 (energy)
C	0.1650918	-2.5038985	-0.3553088
O	-0.1728443	-3.0508502	0.6933734
O	-0.0443637	-3.1284511	-1.5568218
H	0.2998486	-2.6306820	-2.3402922
N	0.3486422	-0.2812377	-1.5073343
C	1.7592694	-1.2894634	-3.2081996
H	2.3075553	-1.9298764	-2.5268455
H	2.0686115	-1.3210912	-4.2442155
C	0.8164424	-0.3874168	-2.8108273
C	0.1745738	0.5446294	-3.8157721
H	0.3459143	1.5950275	-3.5507435
H	0.5940054	0.3747824	-4.8088368
H	-0.9100330	0.3936983	-3.8720982
C	-0.7707388	0.4543601	0.4610638
C	-0.5543598	0.7932091	-1.0267528
C	0.8491209	-1.1162652	-0.3969153
C	0.5186255	-0.2929518	0.8612526
H	-0.9480900	1.3492735	1.0638124
H	-1.6352184	-0.2086826	0.5799768
H	-0.0796378	1.7786013	-1.1421306
H	-1.4950393	0.8049367	-1.5871458
H	1.9319810	-1.2760598	-0.4992144
H	0.3873951	-0.9383126	1.7308254
H	1.3308100	0.4149551	1.0606529
O	4.0251137	-2.2204449	-0.5410361
H	5.4296417	-1.4262501	-1.7766446
C	4.8796903	-2.3234607	-1.4282892
C	5.2676161	-3.6156429	-2.1186494
C	4.5282502	-4.8283416	-1.5387175
H	4.8117655	-4.9898735	-0.4927148
H	4.7707215	-5.7339318	-2.1050097
H	3.4448185	-4.6791100	-1.5639989
C	6.8065218	-3.7796769	-2.0864384
H	4.9759212	-3.4831283	-3.1762116
H	7.3159017	-2.8975982	-2.4929684
H	7.1074821	-4.6477328	-2.6818320
H	7.1583489	-3.9339684	-1.0596795
