37
-0.00398551 (energy)
C	-1.8244029	-1.2686268	1.2186662
O	-1.4381849	-1.4590084	2.3709170
O	-3.1625594	-1.1418348	0.9525231
H	-3.3787437	-1.0350831	-0.0076595
N	-1.2546314	-0.1214500	-0.9401344
C	-2.9310515	-1.4574556	-2.0820781
H	-2.7272205	-2.3727597	-1.5383311
H	-3.6789330	-1.5228357	-2.8608082
C	-2.2239760	-0.3025835	-1.9182789
C	-2.5035661	0.8991492	-2.7947990
H	-1.6089484	1.2022335	-3.3522334
H	-3.2874239	0.6647189	-3.5169886
H	-2.8299417	1.7633906	-2.2041295
C	0.5016122	0.7802214	0.3907700
C	-0.3687334	1.0649975	-0.8488420
C	-0.8586079	-1.1778051	0.0127871
C	0.5543479	-0.7604290	0.4593424
H	1.4920330	1.2364743	0.3099668
H	0.0214848	1.1749368	1.2934151
H	0.2504347	1.1565920	-1.7532269
H	-0.9474210	1.9884483	-0.7420002
H	-0.8488998	-2.1569005	-0.4870763
H	0.7790435	-1.1373778	1.4579867
H	1.2939320	-1.1546569	-0.2464451
O	2.9990021	1.2996199	-1.4242852
H	4.9650177	0.8090781	-1.2683231
C	4.1939634	1.4946425	-1.6736151
C	4.7336308	2.6314628	-2.5181369
C	3.6138952	3.4962122	-3.1114512
H	3.0035296	2.9125062	-3.8095459
H	4.0334208	4.3510738	-3.6525451
H	2.9472647	3.8701068	-2.3288019
C	5.6914708	2.0681823	-3.5958349
H	5.3421352	3.2457956	-1.8300952
H	6.4760514	1.4429889	-3.1527052
H	6.1772091	2.8870985	-4.1362294
H	5.1413114	1.4605031	-4.3237584
