37
-0.00396767 (energy)
C	-0.5180632	-0.0214918	2.4560584
O	-0.3094599	-0.6259158	3.5068903
O	-0.6425110	1.3430869	2.4590291
H	-0.8524061	1.7350586	1.5745042
N	0.0000000	0.0000000	-0.0000000
C	-1.8110371	1.5781611	-0.3590028
H	-2.4917368	1.1235533	0.3516091
H	-2.1961098	2.4234561	-0.9132746
C	-0.5811656	1.0729620	-0.6634787
C	0.2629280	1.7090916	-1.7467444
H	0.4957929	0.9916485	-2.5429751
H	-0.2699752	2.5492190	-2.1952403
H	1.2158844	2.0802950	-1.3512616
C	1.4654925	-1.7657639	0.6349163
C	1.2604648	-0.6604434	-0.4193451
C	-0.6693658	-0.7357845	1.0914902
C	0.0331432	-2.1056400	1.0974595
H	1.9963808	-2.6295465	0.2254452
H	2.0470548	-1.3831116	1.4813519
H	1.1562035	-1.0900396	-1.4264436
H	2.0950285	0.0481616	-0.4402751
H	-1.7434479	-0.8362810	0.8797510
H	-0.0004313	-2.5610006	2.0881099
H	-0.4575474	-2.7730684	0.3803135
O	4.3145317	0.4130645	-0.9083290
H	4.9957150	-1.4768512	-0.6011143
C	5.2212022	-0.4265443	-0.8746025
C	6.6783255	-0.1484205	-1.1848557
C	6.9106021	1.3011052	-1.6304387
H	6.3940951	1.5023476	-2.5755932
H	7.9792608	1.4930065	-1.7743665
H	6.5244222	2.0081480	-0.8903786
C	7.1965778	-1.1825235	-2.2135543
H	7.2201973	-0.3296953	-0.2390237
H	7.0094091	-2.2111739	-1.8824294
H	8.2754704	-1.0652665	-2.3578914
H	6.7070964	-1.0421054	-3.1843853
