37
-0.0114747 (energy)
C	1.9654831	-1.2946160	-0.8111283
O	1.3743998	-2.3074267	-1.1640071
O	3.2577770	-1.0603319	-1.2603152
H	3.6163645	-0.1989937	-0.9642744
N	0.0000000	0.0000000	0.0000000
C	0.3717690	1.2937657	-2.0113627
H	1.4334197	1.0852072	-2.0572560
H	-0.0276927	1.9160431	-2.8011978
C	-0.4513672	0.7856254	-1.0631020
C	-1.9393594	1.0543889	-1.0906456
H	-2.2877823	1.5137592	-0.1571327
H	-2.1832882	1.7295045	-1.9132216
H	-2.5118456	0.1295728	-1.2349212
C	0.1119071	-1.5821897	1.7659267
C	-0.8631427	-0.6703533	0.9954224
C	1.4136623	-0.2709428	0.1988833
C	1.4704143	-0.8616176	1.6356174
H	-0.1879123	-1.7253565	2.8080408
H	0.1653206	-2.5614647	1.2813820
H	-1.3386419	0.0625407	1.6644012
H	-1.6563774	-1.2496343	0.5116163
H	1.9890132	0.6644809	0.1238457
H	2.3248446	-1.5279094	1.7870627
H	1.5480244	-0.0381082	2.3548706
O	4.2714434	1.9739578	-1.6638321
H	3.1632363	1.8480261	-3.3627114
C	4.0999570	2.1787371	-2.8708074
C	5.0902240	2.8695866	-3.7867313
C	6.3279647	3.3705247	-3.0312974
H	6.0513883	4.1441804	-2.3063439
H	7.0578388	3.7965586	-3.7279692
H	6.8066026	2.5587119	-2.4757805
C	4.3728029	3.9927235	-4.5741611
H	5.3973247	2.1021993	-4.5201409
H	3.4843687	3.6168813	-5.0959128
H	5.0475814	4.4214054	-5.3221568
H	4.0576952	4.7979570	-3.9002707
