37
-0.00411097 (energy)
C	3.4029403	0.7799278	-1.9230112
O	3.0247176	0.2134433	-2.9407201
O	4.1373523	1.9536640	-2.0213147
H	4.3412564	2.3524177	-1.1509428
N	1.8933665	-0.3557596	-0.3017510
C	0.7693523	1.7874306	-0.2709340
H	1.6550210	2.3568955	-0.5239278
H	-0.1414876	2.3553864	-0.1351582
C	0.7511114	0.4369106	-0.1673908
C	-0.5321565	-0.3102524	0.1191124
H	-0.4469671	-0.9376855	1.0151797
H	-1.3502204	0.3956719	0.2751764
H	-0.8098710	-0.9660840	-0.7155135
C	3.3562668	-2.1753765	-0.7298415
C	1.9131322	-1.8338672	-0.3096292
C	3.2080490	0.2315555	-0.4968829
C	4.1765923	-0.9591075	-0.2507778
H	3.7057066	-3.1148515	-0.2920418
H	3.4162799	-2.2553856	-1.8191593
H	1.6804997	-2.2380948	0.6869891
H	1.1827851	-2.2399731	-1.0171086
H	3.3693399	1.0405730	0.2319194
H	5.1277456	-0.8487895	-0.7799933
H	4.3890048	-1.0275640	0.8224001
O	4.4219905	2.4729123	1.6911240
H	6.0999558	1.8064209	0.7581748
C	5.6436407	2.4890616	1.5028647
C	6.6244435	3.3922723	2.2233193
C	5.9230849	4.3639080	3.1812553
H	5.2807351	5.0571014	2.6267603
H	6.6590076	4.9500655	3.7419778
H	5.2875944	3.8275358	3.8920227
C	7.5224530	4.1132256	1.1889207
H	7.2758236	2.7147946	2.8045350
H	8.0038414	3.4025771	0.5062485
H	8.3097376	4.6777003	1.6989629
H	6.9341370	4.8175176	0.5891881
