37
-0.00385955 (energy)
C	-2.4710733	0.0529178	-0.0986170
O	-2.7068927	-0.0718629	1.1041079
O	-3.4239977	0.4947580	-0.9965696
H	-4.2681223	0.6881097	-0.5324951
N	0.0000000	0.0000000	0.0000000
C	-0.1858644	2.3883042	-0.3530293
H	-1.0991532	2.3223582	-0.9314313
H	0.2158599	3.3812588	-0.1978992
C	0.4443547	1.3127367	0.1770207
C	1.6997622	1.4694251	1.0062591
H	2.5351137	0.8902411	0.5928384
H	1.9986884	2.5190083	1.0389696
H	1.5460102	1.1309531	2.0386899
C	-0.3960420	-2.3242819	0.2901449
C	0.5998680	-1.1956136	0.6268083
C	-1.1694551	-0.3071497	-0.8103400
C	-1.0732201	-1.8445513	-1.0110887
H	0.0992070	-3.2927025	0.1730942
H	-1.1408917	-2.4136917	1.0873039
H	1.5956255	-1.4048885	0.2076234
H	0.7116485	-1.0700446	1.7092570
H	-1.1448061	0.2294643	-1.7641603
H	-2.0468752	-2.3100386	-1.1892198
H	-0.4379765	-2.0448794	-1.8812819
O	3.5135337	-1.0830546	-1.0141958
H	4.0585153	0.5098942	-2.1524760
C	4.1188132	-0.5815336	-1.9682634
C	4.9750340	-1.3474878	-2.9567059
C	5.0801547	-2.8363719	-2.6020299
H	5.5951914	-2.9700377	-1.6441856
H	5.6401837	-3.3769970	-3.3725264
H	4.0893651	-3.2900884	-2.5060570
C	6.3572244	-0.6626469	-3.0860027
H	4.4657709	-1.2406582	-3.9315507
H	6.2597440	0.4028574	-3.3268256
H	6.9418312	-1.1364662	-3.8811894
H	6.9223676	-0.7508459	-2.1507722
