37
-0.00222085 (energy)
C	2.6828068	1.7280502	-0.8501519
O	3.4177353	0.9595487	-1.4722560
O	2.0937476	2.8288571	-1.4424693
H	2.3428468	2.8813269	-2.3914123
N	2.2158202	0.2912664	1.1084968
C	0.0627954	-0.0247853	0.0465327
H	0.0485048	0.9528745	-0.4192689
H	-0.7961994	-0.6577604	-0.1347880
C	1.0863755	-0.4754307	0.8108476
C	1.0663507	-1.8651100	1.4080294
H	1.1707996	-1.8399614	2.5001104
H	0.1239744	-2.3620540	1.1692293
H	1.8824778	-2.4846400	1.0153013
C	4.4160885	0.9615410	1.7025267
C	3.3944230	-0.1828926	1.8623476
C	2.3530864	1.6621335	0.6389242
C	3.5394555	2.2117087	1.4777688
H	5.0695560	1.0584870	2.5745315
H	5.0420441	0.7817232	0.8226956
H	3.1460125	-0.3500694	2.9213042
H	3.7807518	-1.1240383	1.4562044
H	1.4357068	2.2347460	0.8088203
H	4.0693699	3.0275964	0.9778372
H	3.1491344	2.5935973	2.4278806
O	2.9015072	-1.7071320	4.7604336
H	1.4671922	-0.4330224	5.4309244
C	2.3634324	-1.0455314	5.6553592
C	2.8300443	-0.9867364	7.0960656
C	4.0238182	-1.9140587	7.3579786
H	3.7382157	-2.9619499	7.2132365
H	4.3860843	-1.7945322	8.3846476
H	4.8468772	-1.7018861	6.6692913
C	1.6355498	-1.2654120	8.0403634
H	3.1396448	0.0609093	7.2624078
H	0.7888407	-0.6013986	7.8283085
H	1.9327413	-1.1113070	9.0827264
H	1.2917885	-2.3010594	7.9350790
