37
-0.00335081 (energy)
C	-1.1322221	-0.1886650	-2.2195504
O	-2.2517009	-0.5084031	-1.8167318
O	-0.7135368	-0.4366716	-3.5129188
H	-1.4265282	-0.8780795	-4.0248746
N	-0.5312195	1.4016470	-0.4227664
C	-1.0080749	3.0840505	-2.0976692
H	-0.7103995	2.4641095	-2.9343630
H	-1.3503096	4.0829050	-2.3355178
C	-0.9818010	2.6664088	-0.8093138
C	-1.4427333	3.5659309	0.3161358
H	-0.6574882	3.7102368	1.0689632
H	-1.7193610	4.5462260	-0.0769934
H	-2.3180306	3.1507917	0.8315293
C	-0.1759443	-0.6144024	0.7824906
C	-0.5636894	0.8685422	0.9545379
C	-0.0169501	0.4454726	-1.3922378
C	0.6730019	-0.6279690	-0.5063178
H	0.3686840	-1.0034354	1.6478484
H	-1.0763989	-1.2209016	0.6424988
H	0.1548146	1.3957908	1.6001430
H	-1.5572498	0.9730091	1.4038507
H	0.6896085	0.9186262	-2.0816112
H	0.7150785	-1.6098710	-0.9864340
H	1.7006582	-0.3062638	-0.3030196
O	2.0118714	-3.3432390	-1.7542113
H	3.2056658	-4.9862078	-1.8295846
C	2.3094387	-4.4542654	-2.2072076
C	1.5335018	-5.1951499	-3.2776423
C	0.2653023	-4.4427980	-3.7010308
H	-0.4384317	-4.3701530	-2.8643253
H	-0.2332334	-4.9625976	-4.5261631
H	0.4994683	-3.4229656	-4.0201571
C	1.2436035	-6.6396328	-2.8026652
H	2.2192360	-5.2673185	-4.1411492
H	2.1605989	-7.1551404	-2.4925542
H	0.7870032	-7.2197582	-3.6110973
H	0.5500653	-6.6365142	-1.9536557
