37
-0.0100847 (energy)
C	-0.4719621	-0.1238432	0.0439970
O	-0.2476805	0.3341097	-1.0774775
O	0.5152637	-0.2465034	1.0031352
H	1.3728333	0.0842059	0.6560012
N	-2.9385053	0.0627321	0.0348636
C	-2.5490323	1.9572701	1.4916438
H	-1.6447316	1.5505820	1.9273492
H	-2.8643494	2.9274089	1.8533241
C	-3.2689431	1.3251840	0.5339538
C	-4.5063467	1.9583271	-0.0628692
H	-5.3881786	1.3155545	0.0528839
H	-4.7143985	2.9106284	0.4289525
H	-4.3821103	2.1535919	-1.1355077
C	-2.7427282	-1.8501053	-1.3601434
C	-3.6384447	-0.6291663	-1.0667642
C	-1.7996091	-0.6858381	0.5459168
C	-2.0269970	-2.1150544	-0.0187071
H	-3.3189985	-2.7133157	-1.7059628
H	-2.0082563	-1.5964209	-2.1311511
H	-4.6484534	-0.9405994	-0.7602735
H	-3.7390746	0.0143731	-1.9474958
H	-1.7782671	-0.6800104	1.6403782
H	-1.0967271	-2.6797671	-0.1287561
H	-2.6770480	-2.6647390	0.6713528
O	2.5933936	1.3570354	-0.9616926
H	1.6375662	0.2690560	-2.3874793
C	2.1509410	1.2105228	-2.1066386
C	2.2455737	2.2391240	-3.2156213
C	2.8957573	3.5454398	-2.7418898
H	2.2760063	4.0315214	-1.9801625
H	3.0193447	4.2398459	-3.5798033
H	3.8763575	3.3585531	-2.2944191
C	0.8467821	2.4578713	-3.8414864
H	2.8814987	1.7767773	-3.9920996
H	0.3943087	1.5114418	-4.1613874
H	0.9216745	3.1096275	-4.7179547
H	0.1703198	2.9334791	-3.1217518
