37
-0.0100848 (energy)
C	-0.4719621	-0.0218235	-0.1296018
O	-0.2476806	1.0030906	0.5161358
O	0.5152638	-0.9450904	-0.4169510
H	1.3728334	-0.6606572	-0.0309867
N	-2.9385053	-0.0452275	0.0557249
C	-2.5490322	-1.8088589	1.6685135
H	-1.6447315	-2.1673243	1.1923445
H	-2.8643493	-2.3335074	2.5611085
C	-3.2689431	-0.7559579	1.2123312
C	-4.5063468	-0.2781462	1.9394926
H	-5.3881787	-0.2805245	1.2863848
H	-4.7143986	-0.9278614	2.7919223
H	-4.3821105	0.7442891	2.3180525
C	-2.7427283	1.6607469	-1.5858118
C	-3.6384447	1.1598109	-0.4343664
C	-1.7996090	-0.4185288	-0.7702162
C	-2.0269969	0.3856980	-2.0796736
H	-3.3189986	2.1512074	-2.3758573
H	-2.0082565	2.3759895	-1.2020974
H	-4.6484535	0.9120561	-0.7942897
H	-3.7390748	1.9154128	0.3523336
H	-1.7782670	-1.4973748	-0.9545283
H	-1.0967270	0.5921365	-2.6166973
H	-2.6770479	-0.1984267	-2.7408349
O	3.0260355	-1.0558943	1.5146832
H	3.2899622	0.5723129	2.7018887
C	3.3038831	-0.5313202	2.5990053
C	3.6789897	-1.2834322	3.8601322
C	3.6042317	-2.8042945	3.6730219
H	2.5740335	-3.1187569	3.4720240
H	3.9522651	-3.3205415	4.5740959
H	4.2156513	-3.1281757	2.8256727
C	2.8133221	-0.7811038	5.0410052
H	4.7235236	-0.9941366	4.0754007
H	2.8703856	0.3087520	5.1494288
H	3.1535861	-1.2320277	5.9788110
H	1.7619280	-1.0549289	4.8946755
