37
-0.00218618 (energy)
C	1.5210461	-2.9270905	-0.1578856
O	0.6869079	-3.7780054	0.1549808
O	2.0659413	-2.8575558	-1.4259000
H	1.6866836	-3.5585458	-2.0004197
N	1.1790132	-1.3613433	1.7263061
C	0.0126786	-0.0269397	0.0763962
H	0.6146499	-0.3685626	-0.7566216
H	-0.7656118	0.6893294	-0.1530144
C	0.1824317	-0.4575196	1.3494867
C	-0.7122047	0.0294828	2.4678292
H	-0.1348740	0.4923903	3.2781309
H	-1.4172606	0.7713625	2.0876155
H	-1.2922442	-0.7919553	2.9070444
C	2.4252446	-3.0162688	2.8888244
C	1.3504793	-1.9266390	3.0802863
C	2.1407994	-1.8812326	0.7654213
C	3.2285759	-2.5325641	1.6630148
H	3.0507787	-3.1420445	3.7774742
H	1.9473475	-3.9757252	2.6667536
H	1.6861977	-1.1565891	3.7911740
H	0.4149044	-2.3498153	3.4618347
H	2.5535187	-1.0810647	0.1427422
H	3.7702713	-3.3362927	1.1560633
H	3.9543369	-1.7625567	1.9480793
O	3.3315662	0.1591971	-2.2711127
H	1.4265411	-0.1727779	-2.8962885
C	2.5128559	-0.3072390	-3.0712891
C	2.8644180	-1.0806294	-4.3263150
C	4.3796745	-1.1645222	-4.5512172
H	4.8001624	-0.1679324	-4.7261285
H	4.6056550	-1.7910741	-5.4206642
H	4.8858405	-1.5835258	-3.6765942
C	2.1109604	-0.4768917	-5.5362645
H	2.4632669	-2.0978663	-4.1669703
H	1.0319657	-0.4137444	-5.3503070
H	2.2646415	-1.0964395	-6.4257219
H	2.4787267	0.5318438	-5.7576749
