37
-0.0098107 (energy)
C	0.5262163	0.0529179	-2.4164075
O	-0.6172868	-0.0718630	-2.8574953
O	1.5760006	0.4947581	-3.1989269
H	1.2655572	0.6881098	-4.1108130
N	0.0000000	0.0000000	0.0000000
C	0.3799407	2.3883042	-0.1217379
H	1.1081465	2.3223583	-0.9207132
H	0.1574086	3.3812589	0.2469453
C	-0.2514929	1.3127367	0.4068646
C	-1.2861326	1.4694250	1.4992038
H	-1.0240500	0.8902410	2.3936543
H	-1.3702543	2.5190082	1.7879085
H	-2.2761797	1.1309529	1.1685078
C	-0.2169647	-2.3242820	-0.4404084
C	-0.7214516	-1.1956136	0.4819105
C	1.0011030	-0.3071496	-1.0109743
C	1.1820910	-1.8445512	-0.8813416
H	-0.1876913	-3.2927025	0.0676424
H	-0.8726712	-2.4136918	-1.3123674
H	-0.4815465	-1.4048885	1.5353309
H	-1.8068660	-1.0700448	0.4040275
H	1.9361522	0.2294644	-0.8210705
H	1.5265895	-2.3100385	-1.8092725
H	1.9287550	-2.0448792	-0.1046413
O	1.1097936	0.4130646	-6.3868036
H	1.2940547	-1.4768510	-7.1109856
C	0.9855660	-0.4265440	-7.2855563
C	0.4269995	-0.1484201	-8.6666678
C	-0.0521483	1.3011056	-8.8180408
H	-0.8932533	1.5023480	-8.1452562
H	-0.3794601	1.4930071	-9.8454713
H	0.7437281	2.0081484	-8.5662378
C	-0.6760644	-1.1825230	-8.9984151
H	1.2643672	-0.3296949	-9.3645493
H	-0.3174686	-2.2111734	-8.8715892
H	-1.0055564	-1.0652659	-10.0358530
H	-1.5471487	-1.0421050	-8.3477870
