37
-0.00192631 (energy)
C	-0.0076739	-0.6251891	3.9163256
O	1.0912842	-1.1790467	3.8592214
O	-0.3609933	0.2100062	4.9590243
H	0.3777023	0.2857836	5.6023617
N	-0.7013485	-0.9327801	1.5619823
C	-0.1464526	1.4151001	1.3552916
H	-0.4005824	1.6575382	2.3798091
H	0.2044965	2.2328469	0.7392303
C	-0.2355167	0.1668285	0.8367744
C	0.1665916	-0.1187750	-0.5932518
H	-0.6554290	-0.5679404	-1.1648421
H	0.4597706	0.8070903	-1.0921219
H	1.0163379	-0.8113144	-0.6426170
C	-1.1106168	-3.1456376	2.3229562
C	-0.7358477	-2.3257476	1.0713973
C	-1.1643177	-0.8004581	2.9355789
C	-1.8945175	-2.1459669	3.1993573
H	-1.6964789	-4.0356866	2.0751880
H	-0.2027084	-3.4662143	2.8437159
H	-1.4869108	-2.4469173	0.2762451
H	0.2339079	-2.6344881	0.6661676
H	-1.8370546	0.0557579	3.0480714
H	-1.9100941	-2.4186863	4.2585055
H	-2.9318518	-2.0540597	2.8581938
O	3.0532068	0.0390472	-0.0040112
H	3.1048502	0.8795673	1.8455919
C	3.6089859	0.7098689	0.8730517
C	4.9752209	1.3528833	0.7436183
C	5.6509681	1.0165668	-0.5920007
H	5.8546615	-0.0577511	-0.6623217
H	6.6002552	1.5541325	-0.6892112
H	5.0094217	1.2832134	-1.4370162
C	5.8446187	0.9754655	1.9674968
H	4.7939502	2.4416918	0.7957796
H	5.3386136	1.2117581	2.9113836
H	6.7905932	1.5260936	1.9444151
H	6.0755751	-0.0961973	1.9630464
