37
-0.000541775 (energy)
C	1.1501318	2.1652492	0.3280575
O	2.3096317	1.7524779	0.3819806
O	0.8489442	3.4968485	0.1141979
H	1.6729068	4.0218388	0.0104334
N	0.0000000	0.0000000	0.0000000
C	-0.2127999	0.7470753	-2.2934182
H	-0.2570663	1.7993466	-2.0409112
H	-0.2793154	0.5004952	-3.3451694
C	-0.0688728	-0.2381877	-1.3749866
C	0.0215650	-1.6899968	-1.7900851
H	-0.7541436	-2.2994461	-1.3094286
H	-0.0995698	-1.7787903	-2.8715165
H	0.9925523	-2.1260145	-1.5232732
C	0.4492937	-0.2087037	2.3233377
C	0.2428978	-1.0278674	1.0328172
C	-0.1170475	1.3430701	0.5487073
C	-0.3390187	1.0928770	2.0657099
H	0.1003002	-0.7416141	3.2127311
H	1.5120784	0.0185052	2.4541899
H	-0.6180057	-1.7070495	1.1255624
H	1.1244357	-1.6343986	0.7983635
H	-0.9554046	1.8848945	0.0993533
H	-0.0064573	1.9301583	2.6860133
H	-1.4102499	0.9447975	2.2430180
O	2.6194402	9.5005235	1.2275905
H	2.3394951	8.5828372	3.0191417
C	2.6966677	8.5165303	1.9718519
C	3.2575304	7.1656977	1.5749855
C	3.6614551	7.1166525	0.0957760
H	2.7840120	7.2403290	-0.5487337
H	4.1317172	6.1568000	-0.1431999
H	4.3621007	7.9203907	-0.1488340
C	2.2524124	6.0530185	1.9595085
H	4.1560686	7.0244592	2.2024922
H	1.9668581	6.1136071	3.0166676
H	2.6942382	5.0666360	1.7850633
H	1.3410050	6.1283285	1.3549533
