37
-0.000369825 (energy)
C	2.2883203	-0.3704822	-0.8631697
O	2.9212742	0.1057362	0.0803945
O	2.8766584	-1.1857435	-1.8112275
H	3.8285989	-1.3170279	-1.6066057
N	0.0000000	0.0000000	0.0000000
C	0.0539124	-2.3794752	0.4453801
H	0.7142980	-2.6102356	-0.3814419
H	-0.2705274	-3.2156966	1.0510858
C	-0.3570121	-1.1246959	0.7481086
C	-1.2530930	-0.8585678	1.9374153
H	-2.1794649	-0.3494662	1.6427399
H	-1.5228040	-1.7993727	2.4213513
H	-0.7555012	-0.2266768	2.6838954
C	0.4713931	2.2310332	-0.6660326
C	-0.3493105	1.3951329	0.3373554
C	0.8217757	-0.1086124	-1.1964553
C	0.6626842	1.2828104	-1.8686140
H	-0.0340225	3.1613645	-0.9414405
H	1.4439673	2.4841221	-0.2320937
H	-1.4283861	1.5735449	0.2156599
H	-0.0841304	1.6381049	1.3720543
H	0.4723874	-0.9165332	-1.8472448
H	1.5166962	1.5490791	-2.4980406
H	-0.2318732	1.2656919	-2.5013668
O	0.2567233	-6.2248614	5.0696108
H	-0.5711880	-4.4789790	5.6993969
C	0.0238794	-5.0182650	4.9352960
C	0.4937870	-4.1640255	3.7750028
C	1.3748988	-4.9496317	2.7951629
H	2.3024791	-5.2710216	3.2818849
H	1.6363999	-4.3299260	1.9307819
H	0.8642257	-5.8492793	2.4393810
C	1.1867936	-2.8898454	4.3157267
H	-0.4267608	-3.8395856	3.2569157
H	0.5459619	-2.3503184	5.0235705
H	1.4264817	-2.2102560	3.4915304
H	2.1218316	-3.1450396	4.8279786
