37
-0.00195661 (energy)
C	-0.3084678	0.3134473	0.2159155
O	0.8519711	0.5418076	0.5608230
O	-0.6317311	-0.7022662	-0.6635351
H	0.1775060	-1.1855687	-0.9407539
N	-1.4790435	1.5778538	1.9906712
C	-1.9086728	-0.6161213	2.9207595
H	-1.9315587	-1.1172143	1.9608760
H	-2.0733127	-1.2362964	3.7923576
C	-1.6764850	0.7103063	3.0679099
C	-1.6219579	1.3495802	4.4377972
H	-2.3474615	2.1672255	4.5341490
H	-1.8441574	0.6071716	5.2068933
H	-0.6290919	1.7663081	4.6491532
C	-0.8124802	3.4223577	0.6502166
C	-1.1374500	3.0108276	2.1007713
C	-1.5472143	1.1121930	0.6133078
C	-1.6247498	2.4289410	-0.2072576
H	-1.0748696	4.4646893	0.4464830
H	0.2573409	3.2936301	0.4574221
H	-1.9841217	3.5901549	2.4989820
H	-0.2804124	3.1710808	2.7639177
H	-2.4254874	0.4794666	0.4501240
H	-1.2373240	2.3175877	-1.2240738
H	-2.6741600	2.7368671	-0.2766976
O	4.9407117	-4.7293506	1.4776606
H	3.0604507	-4.6678260	2.2464297
C	3.8122825	-4.2311562	1.5587865
C	3.3333338	-3.0261417	0.7743334
C	4.4418953	-2.4234429	-0.0982873
H	5.2532079	-2.0303366	0.5244762
H	4.0483282	-1.6037534	-0.7088500
H	4.8755949	-3.1773432	-0.7618176
C	2.7032794	-1.9943544	1.7410917
H	2.5222970	-3.4016584	0.1244947
H	1.9229775	-2.4478603	2.3641958
H	2.2496973	-1.1736211	1.1760679
H	3.4654974	-1.5691014	2.4044209
