37
-0.00873636 (energy)
C	-0.4148720	0.1773259	-0.1909394
O	-0.6181216	-0.2818955	0.9340199
O	0.8354264	0.1650469	-0.7793350
H	1.4910259	-0.2569177	-0.1814792
N	-2.7574249	0.2807746	-0.9786406
C	-2.1448587	-1.6741937	-2.2693898
H	-1.1074875	-1.3846028	-2.3833733
H	-2.4384027	-2.6076136	-2.7319543
C	-3.0552092	-0.9437908	-1.5818229
C	-4.4838671	-1.4161507	-1.4267483
H	-5.2001256	-0.6770014	-1.8072941
H	-4.6327015	-2.3469291	-1.9777037
H	-4.7347042	-1.6037806	-0.3750867
C	-2.7980419	2.1842546	0.4420755
C	-3.6882725	1.0710215	-0.1472231
C	-1.4353972	0.8809329	-1.0819354
C	-1.6633520	2.3376097	-0.5927586
H	-3.3497266	3.1154891	0.6010005
H	-2.3853368	1.8613870	1.4031627
H	-4.5024353	1.4924656	-0.7559666
H	-4.1411753	0.4608641	0.6417919
H	-1.0642708	0.8514366	-2.1113674
H	-0.7584945	2.7916507	-0.1786414
H	-1.9881182	2.9460830	-1.4443390
O	2.8707344	0.6421792	1.4236751
H	1.8847271	2.3135972	0.8200823
C	2.5593107	1.8311871	1.5556109
C	3.0307890	2.7362760	2.6760309
C	3.8959175	1.9901591	3.6999857
H	3.3104679	1.2173909	4.2105474
H	4.2834111	2.6832529	4.4543347
H	4.7407318	1.4925048	3.2148439
C	1.8131015	3.4420692	3.3204441
H	3.6392029	3.5180060	2.1863224
H	1.2012080	3.9580411	2.5706729
H	2.1488583	4.1847056	4.0514367
H	1.1760093	2.7175008	3.8409595
