37
-0.00811904 (energy)
C	-0.4153456	-0.2532135	0.0582415
O	0.5345395	-1.0163038	-0.1238016
O	-0.2653945	1.1202635	0.0843584
H	0.6739240	1.3650540	-0.0674793
N	-2.2582926	-1.8393033	-0.3962850
C	-2.4233603	-0.6532019	-2.5008249
H	-2.0832107	0.2925665	-2.0973221
H	-2.6700890	-0.6669392	-3.5545530
C	-2.5353392	-1.7847650	-1.7646182
C	-2.9835565	-3.0866601	-2.3910412
H	-3.8703077	-3.4949815	-1.8899133
H	-3.2306451	-2.9308165	-3.4430449
H	-2.1975596	-3.8506455	-2.3395484
C	-1.6862329	-2.6057324	1.7782619
C	-2.2811803	-3.0631386	0.4307128
C	-1.8591057	-0.6547147	0.3493803
C	-2.0064571	-1.0969017	1.8312450
H	-2.1085723	-3.1543455	2.6252942
H	-0.6021170	-2.7572227	1.7772554
H	-3.3084867	-3.4374811	0.5554291
H	-1.6848056	-3.8645443	-0.0187799
H	-2.5025552	0.1991188	0.1142711
H	-1.3515069	-0.5390101	2.5066786
H	-3.0420831	-0.9260890	2.1462116
O	2.4165932	1.0549531	-1.5325718
H	3.2075575	-0.4469345	-2.6501056
C	2.7948935	0.5811080	-2.6098328
C	2.7477581	1.3006888	-3.9427994
C	2.0964205	2.6853133	-3.8323663
H	1.0439597	2.5951896	-3.5411632
H	2.1443852	3.2109043	-4.7920674
H	2.5940137	3.2960929	-3.0733651
C	2.0618596	0.3974708	-4.9963248
H	3.8023966	1.4181382	-4.2510640
H	2.5337586	-0.5910583	-5.0503525
H	2.1255577	0.8567264	-5.9881002
H	1.0017740	0.2568547	-4.7549378
