37
-0.0082651 (energy)
C	-0.4153456	-0.2532135	0.0582415
O	0.5345395	-1.0163038	-0.1238016
O	-0.2653945	1.1202635	0.0843584
H	0.6739240	1.3650540	-0.0674793
N	-2.2582926	-1.8393033	-0.3962850
C	-2.4233603	-0.6532019	-2.5008249
H	-2.0832107	0.2925665	-2.0973221
H	-2.6700890	-0.6669392	-3.5545530
C	-2.5353392	-1.7847650	-1.7646182
C	-2.9835565	-3.0866601	-2.3910412
H	-3.8703077	-3.4949815	-1.8899133
H	-3.2306451	-2.9308165	-3.4430449
H	-2.1975596	-3.8506455	-2.3395484
C	-1.6862329	-2.6057324	1.7782619
C	-2.2811803	-3.0631386	0.4307128
C	-1.8591057	-0.6547147	0.3493803
C	-2.0064571	-1.0969017	1.8312450
H	-2.1085723	-3.1543455	2.6252942
H	-0.6021170	-2.7572227	1.7772554
H	-3.3084867	-3.4374811	0.5554291
H	-1.6848056	-3.8645443	-0.0187799
H	-2.5025552	0.1991188	0.1142711
H	-1.3515069	-0.5390101	2.5066786
H	-3.0420831	-0.9260890	2.1462116
O	2.3350524	1.8222350	1.4524363
H	3.3788360	1.2654760	3.1049217
C	2.5155673	1.8122804	2.6753210
C	1.6318660	2.5063651	3.6922462
C	0.5032289	3.3071970	3.0300772
H	0.9122329	4.1271045	2.4291924
H	-0.1617221	3.7343927	3.7883098
H	-0.0886426	2.6757743	2.3609531
C	2.5048976	3.3682439	4.6362568
H	1.1935801	1.6961804	4.3026478
H	3.3127901	2.7806349	5.0888303
H	1.8938442	3.7814545	5.4452452
H	2.9560591	4.2050774	4.0903767
