37
-0.00732734 (energy)
C	-0.4148720	0.0131060	-0.2602509
O	-0.6181216	0.3844321	0.8966997
O	0.8354264	-0.3745137	-0.7030953
H	1.4910259	-0.3134630	0.0261224
N	-2.7574249	-0.4139723	-0.9301606
C	-2.1448587	-2.7412425	-0.6623022
H	-1.1074875	-2.5926702	-0.9357641
H	-2.4384027	-3.7536143	-0.4166563
C	-3.0552092	-1.7397619	-0.6050895
C	-4.4838671	-2.0019306	-0.1826683
H	-5.2001256	-1.6803195	-0.9492993
H	-4.6327015	-3.0690954	-0.0064317
H	-4.7347042	-1.4696682	0.7435573
C	-2.7980419	1.9573967	-1.0653625
C	-3.6882725	0.7258168	-0.8012188
C	-1.4353972	-0.0206210	-1.3950633
C	-1.6633520	1.4096949	-1.9566661
H	-3.3497266	2.7729186	-1.5422050
H	-2.3853368	2.3278407	-0.1215917
H	-4.5024353	0.6573689	-1.5384425
H	-4.1411753	0.7655783	0.1954033
H	-1.0642708	-0.7049228	-2.1646941
H	-0.7584945	2.0236999	-1.9312859
H	-1.9881182	1.3284270	-3.0001337
O	3.6502884	-1.1024360	0.1723705
H	2.1710115	-2.4816430	0.3716212
C	3.2497637	-2.2386608	0.4493269
C	4.1292125	-3.3854297	0.9057362
C	5.6160672	-3.0076210	0.9177725
H	5.9677289	-2.7899940	-0.0969036
H	6.2184084	-3.8279896	1.3224367
H	5.7910712	-2.1131736	1.5228105
C	3.8357363	-4.6387222	0.0459078
H	3.8033488	-3.6136971	1.9366536
H	2.7667977	-4.8839424	0.0400212
H	4.3785274	-5.5040048	0.4399328
H	4.1554004	-4.4809327	-0.9907886
