37
-0.00704408 (energy)
C	-0.0004736	0.4657722	0.1519116
O	1.1526610	0.0690703	-0.0231210
O	-1.1008208	-0.3407434	-0.0680312
H	-0.8171018	-1.2342216	-0.3621342
N	0.4991323	2.4724225	1.5092905
C	-0.2785016	1.1094076	3.3533751
H	-0.9757231	0.5372181	2.7538124
H	-0.2316863	0.8618770	4.4059642
C	0.5198701	2.0813302	2.8504399
C	1.5003106	2.8243507	3.7307197
H	1.3298180	3.9080650	3.7046676
H	1.4020564	2.4907706	4.7656701
H	2.5371445	2.6484583	3.4174249
C	1.1118090	3.3440007	-0.6139849
C	1.4070921	3.4627654	0.8952447
C	-0.4237084	1.8761328	0.5546070
C	-0.3431050	2.8318542	-0.6673850
H	1.2411543	4.2957276	-1.1377182
H	1.7832197	2.6082475	-1.0680032
H	1.1939486	4.4774127	1.2641694
H	2.4563696	3.2392787	1.1166678
H	-1.4382843	1.8223924	0.9621398
H	-0.5930123	2.3360979	-1.6098209
H	-1.0539647	3.6523104	-0.5176113
O	-0.5329347	-3.5080220	-0.1779066
H	-0.4194947	-3.7763497	1.8333876
C	-1.0254421	-3.8370186	0.9071415
C	-2.4419178	-4.3383144	1.1049230
C	-3.2498469	-4.3250749	-0.1991846
H	-3.3787784	-3.2997801	-0.5635229
H	-4.2418096	-4.7619284	-0.0418895
H	-2.7394587	-4.8891511	-0.9853495
C	-3.1226463	-3.5361736	2.2404204
H	-2.3385094	-5.3801525	1.4584252
H	-2.5234226	-3.5472946	3.1588999
H	-4.1031761	-3.9647205	2.4717220
H	-3.2706299	-2.4916987	1.9421002
