37
-0.00679908 (energy)
C	-0.4721266	0.1235242	0.0431205
O	0.1526345	0.4423783	1.0559056
O	0.1329526	-0.4950626	-1.0343005
H	1.0890568	-0.6346451	-0.8563179
N	-2.7651584	0.2735077	0.9586744
C	-2.6457548	-2.1448820	0.9761843
H	-1.9835967	-2.2078759	0.1214490
H	-2.9448132	-3.0834836	1.4245121
C	-3.0883941	-0.9749742	1.4961468
C	-3.9852943	-0.9476453	2.7139558
H	-4.9263376	-0.4197247	2.5141555
H	-4.2274694	-1.9661352	3.0239256
H	-3.5009692	-0.4444487	3.5603239
C	-2.3566010	2.5990734	0.6976294
C	-3.1497667	1.5770515	1.5375286
C	-1.9467615	0.4004077	-0.2382968
C	-2.1461561	1.8839223	-0.6537375
H	-2.8879501	3.5494171	0.5912064
H	-1.3889506	2.7976836	1.1692907
H	-4.2337994	1.7449008	1.4495261
H	-2.8859863	1.6403560	2.5988344
H	-2.2777780	-0.2888871	-1.0216460
H	-1.3026781	2.2802854	-1.2263233
H	-3.0430861	1.9547375	-1.2793603
O	2.9652137	-0.2951365	0.4235978
H	3.2035035	1.7089786	0.6621626
C	3.6668784	0.7026952	0.6239225
C	5.1679244	0.6848630	0.8321563
C	5.7353313	-0.7404438	0.8452495
H	5.3416259	-1.3053112	1.6976085
H	6.8277343	-0.7191782	0.9212504
H	5.4579956	-1.2839538	-0.0627237
C	5.5243959	1.4841243	2.1089823
H	5.5905629	1.2369601	-0.0267088
H	5.0989251	2.4946799	2.0855432
H	6.6108510	1.5773370	2.2065449
H	5.1458361	0.9750962	3.0030768
