37
-0.00658711 (energy)
C	0.1643843	0.1013267	-0.4502575
O	-1.0666424	0.0545585	-0.4395793
O	0.9218716	-0.1114548	0.6857634
H	0.3403217	-0.3034931	1.4540195
N	0.5214000	-0.0708732	-2.8918996
C	1.1637713	-2.3494047	-2.3831506
H	1.5469324	-2.1162628	-1.3973380
H	1.2264645	-3.3847390	-2.6922774
C	0.6154221	-1.4278889	-3.2108561
C	0.0647274	-1.8187236	-4.5644510
H	0.5414771	-1.2543048	-5.3758229
H	0.2352373	-2.8818069	-4.7456468
H	-1.0152533	-1.6353485	-4.6287279
C	-0.1592694	2.2037264	-2.8131230
C	-0.1434734	0.9560773	-3.7198719
C	1.0487062	0.4577623	-1.6424558
C	1.0470738	1.9938990	-1.8736395
H	-0.0884781	3.1331560	-3.3858008
H	-1.0857595	2.2290412	-2.2306859
H	0.4204426	1.1439026	-4.6460281
H	-1.1578024	0.6525759	-4.0009078
H	2.0558700	0.0779583	-1.4431943
H	0.9739017	2.5621945	-0.9419209
H	1.9836938	2.2744192	-2.3685672
O	-1.6971496	0.4222172	2.2302660
H	-2.4643864	-1.3794409	2.7739098
C	-2.5750264	-0.4469228	2.1848821
C	-3.8467518	-0.3589458	1.3652523
C	-3.9759705	0.9848825	0.6365209
H	-4.0650350	1.8072083	1.3551605
H	-4.8633811	0.9908932	-0.0053818
H	-3.0955937	1.1850695	0.0187868
C	-5.0667717	-0.6733052	2.2646437
H	-3.7731140	-1.1714966	0.6199856
H	-4.9488514	-1.6309334	2.7860269
H	-5.9784669	-0.7275282	1.6609357
H	-5.2049235	0.1108232	3.0182210
