37
-0.00222814 (energy)
C	2.3411149	-0.7713423	0.2661409
O	2.6750067	-0.0194022	1.1874007
O	3.0579750	-1.8953743	-0.0681752
H	3.8514899	-2.0004682	0.5023431
N	0.0000000	0.0000000	0.0000000
C	-0.3528460	-1.9598192	1.3764650
H	0.4829199	-2.5117677	0.9635781
H	-0.9296563	-2.4585815	2.1452481
C	-0.6948486	-0.7064978	0.9801969
C	-1.8783682	0.0073773	1.5973857
H	-2.6734216	0.1875595	0.8629831
H	-2.2995734	-0.5943235	2.4053196
H	-1.5906852	0.9818456	2.0102492
C	0.2362053	1.3001639	-1.9536022
C	-0.3746204	1.3232437	-0.5430710
C	1.1619549	-0.5707304	-0.6774910
C	1.5305353	0.4795843	-1.7735841
H	-0.4441780	0.7924162	-2.6465797
H	0.4329993	2.3034849	-2.3413402
H	-1.4591255	1.4474594	-0.5650339
H	0.0498442	2.1404659	0.0590175
H	0.9193123	-1.5434259	-1.1233247
H	2.3373832	1.1274861	-1.4126690
H	1.8683337	-0.0035842	-2.6928259
O	3.0686450	2.7182623	0.0751834
H	2.5299641	3.0083421	2.0131847
C	2.8193224	3.4510840	1.0389999
C	2.8729032	4.9655298	1.0189669
C	3.3535897	5.5116260	-0.3317146
H	4.3877252	5.2060937	-0.5261596
H	3.3101257	6.6059656	-0.3419317
H	2.7402752	5.1291360	-1.1528603
C	3.7257789	5.4705511	2.2079714
H	1.8346346	5.2989326	1.1976422
H	3.3741211	5.0587802	3.1616899
H	3.6764056	6.5623150	2.2728219
H	4.7765375	5.1854005	2.0798403
