37
-0.00695831 (energy)
C	0.1315163	0.0492853	0.4663583
O	-1.0754085	0.2716127	0.3266424
O	0.9485338	-0.2873714	-0.5863753
H	0.4476512	-0.3367295	-1.4306988
N	0.4309433	1.0716712	2.7050386
C	1.1962507	2.8901041	1.3023078
H	1.5949182	2.2454193	0.5283096
H	1.2947235	3.9564701	1.1420952
C	0.5968143	2.4280058	2.4301154
C	0.0638250	3.3853671	3.4744525
H	0.6053712	3.2943988	4.4243868
H	0.1684316	4.4152722	3.1272237
H	-0.9964248	3.2013363	3.6861342
C	0.5343624	-0.8849265	4.0179784
C	-0.1244507	0.5024415	3.9515359
C	0.8989344	0.0398417	1.7824453
C	0.6443381	-1.3041178	2.5370221
H	1.5309327	-0.8036459	4.4665184
H	-0.0487628	-1.5977636	4.6075121
H	0.1290642	1.1213744	4.8145049
H	-1.2203940	0.4185243	3.9025553
H	1.9633930	0.1716266	1.5514899
H	-0.3007213	-1.7464555	2.2019999
H	1.4424344	-2.0254734	2.3492628
O	1.3344238	0.6021306	-3.3324176
H	2.4046463	2.1841143	-4.0267694
C	1.4347766	1.6492187	-3.9817769
C	0.3101881	2.3039741	-4.7585746
C	-0.9807963	1.4760240	-4.7201160
H	-0.8369356	0.5123469	-5.2213402
H	-1.7945680	2.0082526	-5.2241804
H	-1.2845551	1.2662700	-3.6903261
C	0.7842020	2.6093349	-6.2001852
H	0.1349714	3.2746885	-4.2604818
H	1.7144146	3.1902590	-6.2055797
H	0.0227734	3.1861049	-6.7351194
H	0.9587099	1.6804397	-6.7556333
