37
-0.00916664 (energy)
C	-0.3283614	0.1131909	-0.3414414
O	-0.8839763	-0.1435141	0.7314108
O	1.0365767	0.0694886	-0.4968047
H	1.4878636	-0.1729056	0.3421154
N	-2.3033095	-0.0818636	-1.8274269
C	-1.3177332	-2.2703939	-2.1421050
H	-0.2975671	-1.9293114	-2.0134534
H	-1.4539718	-3.3272460	-2.3344690
C	-2.3983859	-1.4504306	-2.0738506
C	-3.7983284	-1.9928715	-2.2666647
H	-4.2736649	-1.5824926	-3.1664241
H	-3.7685071	-3.0794250	-2.3702368
H	-4.4462098	-1.7475397	-1.4164482
C	-2.7405266	2.2057886	-2.1992724
C	-3.4267983	0.8793645	-1.8347597
C	-1.0128836	0.5721933	-1.6227887
C	-1.3561763	2.0931826	-1.5270063
H	-2.6313374	2.2828196	-3.2869722
H	-3.3007093	3.0772688	-1.8493591
H	-4.1856498	0.5929106	-2.5656166
H	-3.9100535	0.9414685	-0.8482809
H	-0.3317378	0.3693646	-2.4586599
H	-1.4250461	2.3942598	-0.4755077
H	-0.5906658	2.7068177	-2.0066008
O	2.9344672	-1.0414185	1.9004721
H	1.9786399	0.4685954	2.8681625
C	2.4920146	-0.5121472	2.9262591
C	2.5866473	-1.0994219	4.3201643
C	3.2368310	-2.4889829	4.3217886
H	2.6170800	-3.2062762	3.7722486
H	3.3604183	-2.8549279	5.3466706
H	4.2174312	-2.4664108	3.8373847
C	1.1878558	-1.0909186	4.9831011
H	3.2225724	-0.3993868	4.8916834
H	0.7353824	-0.0921533	4.9600118
H	1.2627481	-1.4035994	6.0296256
H	0.5113935	-1.7840075	4.4694392
