37
-0.00650033 (energy)
C	-0.4253386	0.1240088	0.2022981
O	-0.5805087	-0.7852955	-0.6191064
O	0.8041463	0.6765863	0.4708658
H	1.5151448	0.2487425	-0.0560427
N	-2.7894197	0.8458516	0.3938246
C	-1.9709073	2.4881269	-1.1851044
H	-0.9682632	2.5150606	-0.7757060
H	-2.1647220	3.1327447	-2.0332819
C	-2.9630442	1.7025127	-0.6918669
C	-4.3445061	1.7159845	-1.3104458
H	-5.0989122	2.1022233	-0.6135859
H	-4.3519070	2.3523809	-2.1976660
H	-4.6625243	0.7095131	-1.6082475
C	-3.3274481	-0.1248703	2.4749314
C	-3.8476618	0.0384298	1.0375901
C	-1.5068257	0.7345109	1.0847819
C	-1.7966558	-0.2056139	2.2982878
H	-3.5968591	0.7541235	3.0713663
H	-3.7341702	-1.0112941	2.9694530
H	-4.8107167	0.5516560	1.0031329
H	-3.9643776	-0.9385557	0.5452389
H	-1.1526428	1.7179094	1.4183409
H	-1.5017385	-1.2322587	2.0532081
H	-1.2413422	0.1046043	3.1859571
O	3.0414168	1.7510433	-0.8876998
H	3.5306676	2.6864572	0.8489081
C	3.0862960	2.7525745	-0.1644759
C	2.5697090	4.1257032	-0.5445731
C	2.0395428	4.1686802	-1.9835651
H	2.8479324	3.9809746	-2.6990146
H	1.6049573	5.1494359	-2.2045320
H	1.2756364	3.4025959	-2.1457235
C	3.6662810	5.1851159	-0.2774587
H	1.7398258	4.3318315	0.1553474
H	4.0406307	5.1290958	0.7518718
H	3.2672000	6.1919784	-0.4373147
H	4.5147264	5.0444961	-0.9573032
