37
-0.00514499 (energy)
C	2.1527677	0.8160200	1.4451349
O	2.8799302	-0.1765532	1.5530723
O	2.2686564	1.9110492	2.2676823
H	2.9780447	1.7866513	2.9366332
N	1.2753912	0.3758816	-0.8315091
C	3.0458001	1.9418378	-1.3544632
H	2.9534983	2.4952140	-0.4277040
H	3.8055775	2.2814506	-2.0472134
C	2.2704522	0.8726966	-1.6716091
C	2.4502628	0.1458405	-2.9871343
H	1.5652198	0.2402656	-3.6287772
H	3.3026600	0.5588735	-3.5303080
H	2.6279622	-0.9255816	-2.8345435
C	-0.8829904	-0.3961706	-0.2764368
C	0.3364169	-0.7195554	-1.1549056
C	0.9959086	0.9827476	0.4679021
C	-0.2600145	0.2176302	0.9948606
H	-1.5220266	0.3375552	-0.7806454
H	-1.4866477	-1.2808059	-0.0556658
H	0.0889971	-0.7253550	-2.2183026
H	0.7600720	-1.7019907	-0.8982537
H	0.7945540	2.0564427	0.3658493
H	0.0494175	-0.5782018	1.6818418
H	-0.9385747	0.8844211	1.5310612
O	5.2643311	1.9094381	2.7573702
H	5.7674478	3.4438927	1.5234757
C	5.9296624	2.9147771	2.4839485
C	6.9946584	3.5234520	3.3739580
C	7.1158115	2.7926061	4.7173893
H	6.1924972	2.8960377	5.2982401
H	7.9415473	3.2051498	5.3069151
H	7.2908515	1.7228158	4.5702731
C	6.7298414	5.0397678	3.5377670
H	7.9416935	3.4164209	2.8147150
H	6.6336635	5.5407628	2.5669162
H	7.5547718	5.5118410	4.0811164
H	5.8073118	5.2130420	4.1041036
