37
-0.00654277 (energy)
C	-0.4710137	-0.1003234	-0.0727798
O	-0.2070233	1.0490686	-0.4399643
O	0.4747239	-0.9413630	0.4632577
H	1.3596772	-0.5148326	0.4968930
N	-2.9390848	0.1107755	0.0305717
C	-2.3863608	0.4476378	2.3631813
H	-1.5221725	-0.2054505	2.3463939
H	-2.6143748	0.9242870	3.3083355
C	-3.1703157	0.6845044	1.2796142
C	-4.3666724	1.6071158	1.3733011
H	-5.3091554	1.0696192	1.2097601
H	-4.4104027	2.0650808	2.3635387
H	-4.3164697	2.4091517	0.6269605
C	-3.5130302	-1.0363524	-1.9486870
C	-3.8044406	0.2507096	-1.1601500
C	-1.8190223	-0.7988350	-0.1995042
C	-2.0204321	-1.3046856	-1.6637385
H	-4.1285464	-1.8572456	-1.5636917
H	-3.7172351	-0.9281181	-3.0174747
H	-4.8555403	0.3315060	-0.8760294
H	-3.5405393	1.1431152	-1.7470923
H	-1.8345220	-1.6311230	0.5152239
H	-1.3972991	-0.7193075	-2.3493607
H	-1.7422944	-2.3558098	-1.7654363
O	3.0652053	-0.7449861	-1.0234428
H	1.3838252	-0.4951943	-2.1373269
C	2.3552132	-1.0112004	-1.9997485
C	2.6980475	-2.0203654	-3.0771849
C	4.0858257	-2.6409718	-2.8709310
H	4.8675107	-1.8785492	-2.9619012
H	4.2746726	-3.4186957	-3.6186308
H	4.1760033	-3.0837435	-1.8746606
C	2.5341255	-1.3674141	-4.4710857
H	1.9300876	-2.8106612	-2.9950027
H	1.5408384	-0.9188169	-4.5933098
H	2.6653480	-2.1168963	-5.2582634
H	3.2841283	-0.5821655	-4.6217590
