37
-0.00389841 (energy)
C	-0.5977509	-1.5648805	-2.1406903
O	-1.8240986	-1.4988195	-2.2723131
O	0.1545229	-2.5650815	-2.7088326
H	-0.4068656	-3.2022680	-3.2038458
N	-0.1920724	0.7536054	-1.3618018
C	0.3369217	0.9966891	-3.7115088
H	0.7156602	-0.0120833	-3.8235925
H	0.3508566	1.6199416	-4.5968694
C	-0.1395476	1.4946714	-2.5411245
C	-0.6515319	2.9164281	-2.4531576
H	-0.0319856	3.5319262	-1.7888932
H	-0.6437831	3.3796272	-3.4418948
H	-1.6771110	2.9522060	-2.0662289
C	0.1451853	0.3410315	0.9357667
C	-0.6082155	1.2623096	-0.0373074
C	0.2698353	-0.6314461	-1.3057657
C	0.1660063	-1.0175375	0.2043951
H	1.1662998	0.7101698	1.0841214
H	-0.3406641	0.2772298	1.9133153
H	-0.3295342	2.3105582	0.0874917
H	-1.6965275	1.1801549	0.1018349
H	1.3015805	-0.7173889	-1.6689397
H	-0.7707606	-1.5558871	0.3879364
H	0.9933355	-1.6613791	0.5102702
O	2.7889615	1.2134175	-0.5461341
H	3.2920784	0.2647241	-2.2715404
C	3.4542929	1.1187252	-1.5836789
C	4.5192889	2.1009088	-2.0285578
C	4.6404419	3.2970202	-1.0755307
H	3.7171275	3.8870073	-1.0765272
H	5.4661777	3.9492273	-1.3794366
H	4.8154818	2.9663718	-0.0475393
C	4.2544720	2.5255348	-3.4933923
H	5.4663239	1.5315763	-2.0202643
H	4.1582940	1.6564303	-4.1553626
H	5.0794023	3.1426043	-3.8639419
H	3.3319423	3.1133562	-3.5656907
