37
-0.00389435 (energy)
C	2.3561709	-3.0160865	0.8017563
O	1.4729890	-3.4757832	1.5327050
O	3.1335192	-3.8092341	-0.0080276
H	2.9013851	-4.7596268	0.0872054
N	1.6470605	-0.6405625	0.8275942
C	0.6564277	-1.3563836	-1.2619738
H	1.4315509	-2.0791853	-1.4864049
H	-0.1460947	-1.2677196	-1.9834984
C	0.6518682	-0.5814744	-0.1464902
C	-0.4620163	0.4123240	0.1042773
H	-0.0949964	1.4463090	0.0945827
H	-1.2267342	0.3216827	-0.6698064
H	-0.9388026	0.2460536	1.0778456
C	3.2604271	0.2331747	2.3096239
C	1.7521377	0.2376153	2.0125004
C	2.7802067	-1.5555831	0.7110460
C	3.7014641	-1.1931251	1.9194920
H	3.7667292	0.9744442	1.6810343
H	3.4820418	0.4632325	3.3554164
H	1.3774317	1.2397222	1.7946923
H	1.1798318	-0.1628835	2.8625590
H	3.3022767	-1.4161173	-0.2438215
H	3.5150764	-1.8830196	2.7503620
H	4.7579049	-1.2616610	1.6515354
O	4.8094400	-5.9959268	-0.2342636
H	6.2469538	-6.5330438	-1.5666420
C	5.4916497	-6.8456646	-0.8179306
C	5.3925314	-8.3422307	-0.6004820
C	4.3871493	-8.7035770	0.5005434
H	4.7193001	-8.3151912	1.4697840
H	4.2809659	-9.7905298	0.5831945
H	3.4039415	-8.2703267	0.2948004
C	6.8032216	-8.9233159	-0.3388173
H	5.0425881	-8.7567544	-1.5631831
H	7.5092542	-8.6429642	-1.1298409
H	6.7606634	-10.0164540	-0.2960443
H	7.2001701	-8.5615221	0.6168810
