37
-0.00294641 (energy)
C	3.3762579	0.1499536	1.9671117
O	3.9748778	0.1139232	0.8873092
O	3.7889529	0.9365297	3.0159608
H	4.6060963	1.4354670	2.7933848
N	1.2398353	-0.8697751	1.2305854
C	0.6494035	1.4754721	1.1245039
H	1.2899462	1.7671514	1.9480667
H	0.0791466	2.2653110	0.6517853
C	0.5369846	0.1984097	0.6758588
C	-0.3805399	-0.1410823	-0.4791963
H	-1.2034345	-0.7960983	-0.1665923
H	-0.8171885	0.7707032	-0.8917492
H	0.1578627	-0.6571926	-1.2832853
C	1.5045678	-3.0307207	2.1377853
C	1.0925640	-2.2920322	0.8541065
C	2.1596076	-0.6830779	2.3504200
C	2.6054968	-2.1298668	2.7356694
H	0.6507609	-3.0947864	2.8217855
H	1.8617942	-4.0452986	1.9409536
H	0.0655821	-2.5174173	0.5598740
H	1.7533292	-2.5570262	0.0152378
H	1.6611375	-0.1829109	3.1901464
H	3.5706439	-2.3589452	2.2697788
H	2.7154551	-2.2398698	3.8165827
O	8.6447025	2.7663175	-1.9073045
H	7.2760275	4.2603357	-2.0648195
C	7.5022998	3.2170462	-1.7662684
C	6.3259938	2.4479614	-1.1991430
C	6.6849151	0.9911888	-0.8788147
H	6.9427746	0.4465161	-1.7939296
H	5.8402961	0.4826189	-0.4017945
H	7.5496553	0.9354810	-0.2110914
C	5.1154408	2.5709757	-2.1560152
H	6.0564776	2.9705599	-0.2635493
H	4.8836499	3.6187461	-2.3823945
H	4.2271430	2.1188529	-1.7031314
H	5.3148821	2.0535476	-3.1016966
