37
-0.00292227 (energy)
C	-0.4710137	-0.1003234	-0.0727798
O	-0.2070233	1.0490686	-0.4399643
O	0.4747239	-0.9413630	0.4632577
H	1.3596772	-0.5148326	0.4968930
N	-2.9390848	0.1107755	0.0305717
C	-2.3863608	0.4476378	2.3631813
H	-1.5221725	-0.2054505	2.3463939
H	-2.6143748	0.9242870	3.3083355
C	-3.1703157	0.6845044	1.2796142
C	-4.3666724	1.6071158	1.3733011
H	-5.3091554	1.0696192	1.2097601
H	-4.4104027	2.0650808	2.3635387
H	-4.3164697	2.4091517	0.6269605
C	-3.5130302	-1.0363524	-1.9486870
C	-3.8044406	0.2507096	-1.1601500
C	-1.8190223	-0.7988350	-0.1995042
C	-2.0204321	-1.3046856	-1.6637385
H	-4.1285464	-1.8572456	-1.5636917
H	-3.7172351	-0.9281181	-3.0174747
H	-4.8555403	0.3315060	-0.8760294
H	-3.5405393	1.1431152	-1.7470923
H	-1.8345220	-1.6311230	0.5152239
H	-1.3972991	-0.7193075	-2.3493607
H	-1.7422944	-2.3558098	-1.7654363
O	4.5250846	4.4207467	-0.1303803
H	3.9553116	3.8786350	-2.0043191
C	3.8919604	3.7019686	-0.9118171
C	2.9961711	2.5494296	-0.5043448
C	3.0126994	2.3088300	1.0107327
H	4.0105235	2.0004944	1.3422012
H	2.3009471	1.5222813	1.2833544
H	2.7540465	3.2201340	1.5578681
C	3.3732843	1.2866579	-1.3163599
H	1.9775821	2.8445997	-0.8148844
H	3.3682014	1.4831438	-2.3953246
H	2.6597555	0.4807215	-1.1165231
H	4.3726638	0.9316459	-1.0388187
