37
-0.00252354 (energy)
C	2.5579684	2.9416552	-0.3075618
O	3.4633141	2.1456749	-0.0385233
O	2.7006932	3.9344300	-1.2473126
H	3.5984559	3.9263862	-1.6475115
N	0.6678172	1.6941854	0.7012823
C	0.4214285	1.0371550	-1.6155369
H	0.7927738	1.9732690	-2.0148122
H	0.1298848	0.2848138	-2.3376769
C	0.3105932	0.7783178	-0.2868053
C	-0.2200833	-0.5517146	0.2037602
H	-1.1704426	-0.4380397	0.7402468
H	-0.3911482	-1.2218582	-0.6411417
H	0.4839054	-1.0382270	0.8896988
C	0.3722334	2.9574900	2.6709200
C	0.4840530	1.5129147	2.1571711
C	1.1940520	3.0156839	0.3672392
C	1.3199918	3.7456100	1.7426591
H	-0.6574104	3.3151658	2.5575679
H	0.6524938	3.0505266	3.7237827
H	-0.4127949	0.9282205	2.3713196
H	1.3435779	0.9968017	2.6103569
H	0.5142689	3.5511984	-0.3072229
H	2.3498707	3.6730091	2.1102437
H	1.0630521	4.8036806	1.6587918
O	5.9239956	-3.0284204	1.5981201
H	5.2673444	-3.5857090	-0.2426437
C	5.2664678	-2.8317487	0.5699620
C	4.4198814	-1.6043874	0.2984955
C	4.3989503	-0.6383953	1.4901508
H	3.9200017	-1.1055028	2.3579147
H	3.8434698	0.2713664	1.2384612
H	5.4133315	-0.3580042	1.7887225
C	3.0023585	-2.0394639	-0.1459286
H	4.8938807	-1.1055296	-0.5661139
H	3.0399412	-2.7391524	-0.9896234
H	2.4183091	-1.1670851	-0.4564655
H	2.4704690	-2.5277752	0.6789761
