37
-0.00227319 (energy)
C	1.5550167	2.0136390	0.9570230
O	1.0558315	2.3373127	2.0394586
O	2.4231793	2.8278564	0.2696750
H	2.5711790	3.6775503	0.7411811
N	1.0833187	-0.4183840	1.0538939
C	3.3827217	-0.4016715	1.8105405
H	3.6691584	0.4532503	1.2099655
H	4.1564339	-0.8400592	2.4283486
C	2.1309045	-0.9286399	1.8187093
C	1.7987308	-2.1280486	2.6802995
H	1.5332342	-3.0035320	2.0745247
H	2.6588767	-2.3965246	3.2969716
H	0.9508512	-1.9240630	3.3453531
C	-0.7378050	-0.5234939	-0.4411784
C	-0.2717986	-0.9996507	0.9442284
C	1.2657439	0.7367396	0.1779506
C	-0.0940082	0.8720481	-0.5791482
H	-0.3557267	-1.1981929	-1.2156101
H	-1.8273117	-0.4868030	-0.5269143
H	-0.2405372	-2.0885689	1.0173241
H	-0.9364554	-0.6238893	1.7364201
H	2.0961344	0.5740048	-0.5204395
H	-0.7213431	1.6240124	-0.0871721
H	0.0547608	1.1797001	-1.6163478
O	-4.1631163	5.8232331	3.8587847
H	-5.0664499	4.1146717	3.2303110
C	-4.1260703	4.6781481	3.3945222
C	-2.8629290	3.9343267	3.0097857
C	-1.6054086	4.7949085	3.1877260
H	-1.6257987	5.6541532	2.5081100
H	-0.7047858	4.2090208	2.9751537
H	-1.5360610	5.1863424	4.2068942
C	-3.0076732	3.3733499	1.5743312
H	-2.8113342	3.0685541	3.6945188
H	-3.9185900	2.7724857	1.4648320
H	-2.1516255	2.7367610	1.3283057
H	-3.0462121	4.1881675	0.8419316
