37
-0.01029 (energy)
C	0.4700281	-0.0552303	-0.1274905
O	-0.1136281	-1.1382653	-0.1596479
O	-0.1686587	1.1199379	0.2287672
H	-1.1164489	0.9484855	0.4210337
N	2.7747209	-0.9563732	-0.4738524
C	3.6111379	-2.9617623	0.5846815
H	3.8412887	-3.4554177	-0.3509314
H	3.8469746	-3.5050760	1.4907265
C	3.0343828	-1.7401433	0.6565548
C	2.6782100	-1.1220872	1.9917501
H	1.5952038	-0.9943438	2.1082462
H	3.0193509	-1.7694561	2.8022947
H	3.1475441	-0.1387116	2.1232731
C	3.2086957	0.0049776	-2.5765144
C	3.2547469	-1.3271287	-1.8108003
C	1.9189826	0.2275468	-0.4945843
C	1.9800314	0.7234055	-1.9805136
H	4.1212763	0.5786235	-2.3779927
H	3.1223760	-0.1313251	-3.6587361
H	4.2682598	-1.7354034	-1.7368671
H	2.6157477	-2.0922064	-2.2800042
H	2.2814035	1.0075522	0.1855817
H	1.0725970	0.4153804	-2.5125950
H	2.0421827	1.8127161	-2.0323332
O	-3.3909893	1.0912914	0.1425233
H	-3.9260189	0.8601326	2.0894392
C	-4.2314458	0.8798136	1.0240229
C	-5.7068067	0.6334721	0.7802104
C	-6.0774734	0.7506208	-0.7038730
H	-5.9153774	1.7729916	-1.0631470
H	-7.1309103	0.4940967	-0.8589180
H	-5.4614675	0.0872377	-1.3180335
C	-6.5456403	1.5695828	1.6836651
H	-5.8925061	-0.4011109	1.1211465
H	-6.2565080	1.4801413	2.7377999
H	-7.6088340	1.3212177	1.6028827
H	-6.4177219	2.6158267	1.3822809
