37
-0.00889255 (energy)
C	-0.4798432	0.0586787	-0.0808575
O	-0.2576780	-0.0491222	1.1248270
O	0.5293324	0.0112773	-1.0269962
H	1.4020595	-0.0980499	-0.5898879
N	-2.9716943	-0.0459701	0.0719854
C	-4.1706418	-1.5594018	1.5258500
H	-4.6931319	-0.7691151	2.0497655
H	-4.3982415	-2.5739761	1.8267883
C	-3.2545369	-1.3280211	0.5576661
C	-2.5084450	-2.4691329	-0.1002165
H	-1.4329927	-2.4315057	0.1113933
H	-2.8821508	-3.4228883	0.2781228
H	-2.6357090	-2.4638759	-1.1903435
C	-3.4543231	2.1364064	-0.6615122
C	-3.7612198	1.1297223	0.4589107
C	-1.8204336	0.3010690	-0.7578021
C	-1.9850372	1.8369201	-1.0254880
H	-4.1080063	1.9460558	-1.5204353
H	-3.5986526	3.1750197	-0.3489665
H	-4.8218973	0.8609271	0.5044652
H	-3.4676102	1.5151869	1.4483684
H	-1.8136465	-0.2547647	-1.7029930
H	-1.3145556	2.4025901	-0.3682977
H	-1.7296502	2.0887626	-2.0572333
O	2.5860373	-1.8672168	0.2715436
H	3.9015442	-2.2111213	1.7819555
C	3.1651056	-2.6209660	1.0619067
C	2.9576071	-4.1197831	1.1474059
C	1.8726163	-4.6117441	0.1807671
H	0.8966876	-4.1921661	0.4493052
H	1.7976544	-5.7040370	0.2099159
H	2.0893977	-4.3029017	-0.8460511
C	2.6798689	-4.5224393	2.6160464
H	3.9273915	-4.5675604	0.8643910
H	3.4594781	-4.1504392	3.2917851
H	2.6439400	-5.6126445	2.7096059
H	1.7167410	-4.1210692	2.9523626
