37
-0.00808017 (energy)
C	-0.3316417	0.0827949	-0.3512683
O	-0.8660145	-0.4308734	0.6312001
O	1.0233420	0.3618506	-0.3960764
H	1.4519015	0.1096168	0.4509085
N	-2.3098244	-0.0678183	-1.8703941
C	-3.7737162	-1.9872299	-1.9910269
H	-4.6641655	-1.4237930	-1.7426811
H	-3.9067909	-3.0435448	-2.1865170
C	-2.5380024	-1.4386647	-2.0384872
C	-1.3182174	-2.2859498	-2.3314573
H	-0.6304625	-2.3229666	-1.4779850
H	-1.6233385	-3.3115864	-2.5492111
H	-0.7584016	-1.9081643	-3.1966075
C	-2.7162778	2.2338158	-2.1368390
C	-3.4068194	0.9046349	-1.7913300
C	-1.0029923	0.5420960	-1.6367723
C	-1.3050489	2.0768779	-1.5328730
H	-2.6563712	2.3487139	-3.2251833
H	-3.2439607	3.1028961	-1.7325077
H	-4.1877678	0.6364695	-2.5107532
H	-3.8642994	0.9284386	-0.7893512
H	-0.3046782	0.3430576	-2.4584317
H	-1.3127486	2.3836614	-0.4806126
H	-0.5415801	2.6664102	-2.0454280
O	2.7336093	-1.7313839	0.9408029
H	3.7870986	-2.5711399	-0.5807564
C	3.1105892	-2.7099966	0.2863298
C	2.7209055	-4.1476664	0.5657412
C	1.8490644	-4.2793485	1.8211989
H	2.4083663	-3.9769196	2.7135628
H	1.5211455	-5.3157375	1.9551382
H	0.9652117	-3.6379389	1.7569204
C	3.9926141	-5.0283442	0.6235272
H	2.1397753	-4.4716426	-0.3165348
H	4.6078748	-4.9098948	-0.2765958
H	3.7182272	-6.0848012	0.7083923
H	4.6062833	-4.7662067	1.4933065
