37
-0.00321496 (energy)
C	0.3316418	0.3315545	-0.1425341
O	0.8660145	-0.5467904	0.5339343
O	-1.0233420	0.3272244	-0.4251313
H	-1.4519015	-0.4630928	-0.0296520
N	2.3098245	1.8537550	-0.2580027
C	3.7737163	2.3058575	1.6113011
H	4.6641656	1.9634448	1.0995489
H	3.9067910	2.6818049	2.6176217
C	2.5380025	2.2573394	1.0628284
C	1.3182175	2.6929883	1.8463675
H	0.6304626	1.8589101	2.0310260
H	1.6233386	3.0855340	2.8186099
H	0.7584017	3.4793932	1.3240897
C	2.7162779	1.7164772	-2.5709375
C	3.4068195	1.6070272	-1.2019528
C	1.0029924	1.5177720	-0.8180829
C	1.3050490	1.1489389	-2.3115061
H	2.6563714	2.7683353	-2.8730790
H	3.2439608	1.1673743	-3.3566030
H	4.1877679	2.3620871	-1.0627880
H	3.8642994	0.6161372	-1.0514029
H	0.3046784	2.3615112	-0.7647481
H	1.3127486	0.0593923	-2.4309057
H	0.5415802	1.5513358	-2.9810864
O	1.6254785	-6.5337558	0.7530971
H	1.0022515	-5.5743344	2.4327612
C	1.3455708	-5.5063433	1.3809561
C	1.4295765	-4.0975363	0.8286661
C	1.9836535	-4.0667462	-0.6016038
H	3.0196117	-4.4230470	-0.6224727
H	1.9620810	-3.0470983	-1.0008850
H	1.4021829	-4.7146095	-1.2640979
C	2.2354358	-3.2050290	1.8034464
H	0.3907742	-3.7207630	0.8247293
H	1.8314618	-3.2512204	2.8220086
H	2.2043902	-2.1611565	1.4748767
H	3.2852828	-3.5187811	1.8381290
