37
-0.00215561 (energy)
C	4.0139108	1.1357915	1.4379853
O	3.7916481	1.9091217	0.5067424
O	4.8634744	1.4585604	2.4819789
H	5.2478466	2.3520228	2.3454087
N	2.2801667	-0.5577294	0.8299127
C	0.0609467	0.0037884	0.0543917
H	0.1645408	-0.5342522	-0.8793198
H	-0.8902224	0.4891440	0.2316875
C	1.0560527	0.1077397	0.9649537
C	0.8773893	0.9240925	2.2271924
H	1.5536436	1.7870126	2.2561961
H	-0.1436190	1.3079540	2.2785587
H	1.0598273	0.3251159	3.1286046
C	3.7141160	-2.3504367	0.3163887
C	2.5204652	-1.5483682	-0.2265937
C	3.4784333	-0.2767886	1.6170683
C	4.5418905	-1.2959838	1.0805155
H	3.3575952	-3.1276931	1.0019899
H	4.2934018	-2.8357609	-0.4748899
H	1.6256182	-2.1650032	-0.3621400
H	2.7518938	-1.0718928	-1.1926311
H	3.3091573	-0.4277516	2.6898865
H	5.2280982	-0.7891760	0.3922624
H	5.1369866	-1.7134932	1.8958020
O	-0.1505943	-3.4538806	-1.0423064
H	-1.3183284	-3.3974880	-2.7046510
C	-1.0620818	-3.8981086	-1.7494016
C	-1.9026619	-5.1163995	-1.4238084
C	-1.4480414	-5.8068838	-0.1314567
H	-0.4334620	-6.2054791	-0.2425674
H	-2.1184245	-6.6362420	0.1181914
H	-1.4328072	-5.1043768	0.7069855
C	-1.9225423	-6.0735232	-2.6402352
H	-2.9318351	-4.7366332	-1.2909027
H	-2.2374124	-5.5578716	-3.5555263
H	-2.6188440	-6.8991835	-2.4612358
H	-0.9277353	-6.5001679	-2.8138883
