37
-0.00145447 (energy)
C	-1.6124455	-0.0513542	2.1604161
O	-1.0001997	0.3041789	3.1670962
O	-2.7343787	-0.8595822	2.2228188
H	-2.9310341	-1.0990665	3.1548288
N	-0.3899836	1.4111334	0.5447580
C	0.2241934	3.7039550	1.0002014
H	1.2821103	3.5354061	0.8438692
H	-0.0751343	4.7152542	1.2439291
C	-0.7021252	2.7206012	0.9286879
C	-2.1617477	3.0003300	1.2165296
H	-2.5137946	2.4648210	2.1065213
H	-2.3052294	4.0672310	1.3997822
H	-2.8051189	2.7115605	0.3755266
C	0.6605172	-0.2726587	-0.7181787
C	0.9351090	1.0399485	0.0332252
C	-1.2696998	0.2565897	0.7106280
C	-0.4525046	-0.9415093	0.1153636
H	0.3013298	-0.0526223	-1.7300346
H	1.5489708	-0.9055590	-0.8037391
H	1.3095750	1.8312906	-0.6247380
H	1.6661893	0.9021388	0.8458421
H	-2.2162061	0.3812796	0.1712196
H	-0.0091599	-1.5288923	0.9276777
H	-1.0935528	-1.6084048	-0.4655433
O	4.0393086	2.4705998	3.5690779
H	2.9072055	3.7401780	2.4570137
C	3.3011289	3.4553883	3.4532587
C	2.8611613	4.3533235	4.5920998
C	3.3755217	3.8614775	5.9511959
H	2.9419268	2.8860721	6.1985316
H	3.1068504	4.5685885	6.7432707
H	4.4629480	3.7425072	5.9420530
C	1.3225371	4.5194901	4.5574630
H	3.3010001	5.3430825	4.3730045
H	0.9744037	4.8589447	3.5744213
H	1.0043268	5.2568675	5.3015117
H	0.8249876	3.5698525	4.7864936
