37
-0.00105907 (energy)
C	-1.4928429	2.4808258	-1.2816694
O	-1.7663596	2.0239748	-2.3940176
O	-0.5907589	3.5094118	-1.1084387
H	-0.1933880	3.7592353	-1.9709680
N	-1.1843470	1.8839153	1.1290368
C	-0.0114207	0.0542398	0.0605011
H	-0.6460754	0.0353438	-0.8161151
H	0.7820600	-0.6811679	0.0957389
C	0.7648531	0.9019935	2.2769179
H	0.2306202	0.6632533	3.2057851
H	1.5365791	0.1436756	2.1304948
H	1.2626881	1.8687382	2.4235917
C	-2.8480734	3.2601198	2.0495630
C	-1.3535762	2.9171537	2.1633960
C	-2.1347932	2.0474234	0.0316041
C	-3.1303997	3.1440552	0.5346471
H	-3.4392753	2.5243826	2.6066225
H	-3.0837176	4.2546821	2.4401561
H	-1.0924554	2.5308002	3.1512302
H	-0.7287169	3.8022853	1.9639472
H	-2.6439905	1.1001168	-0.1833032
H	-2.9161741	4.0971658	0.0402238
H	-4.1654967	2.8739417	0.3111938
C	-0.1664407	0.9274315	1.0845028
O	3.3698726	2.9431632	-4.4767745
H	1.4753452	2.3268066	-4.0754726
C	2.5397687	2.3628106	-3.7680785
C	2.8484031	1.6631101	-2.4596510
C	4.3467302	1.6818993	-2.1305855
H	4.9133759	1.1134948	-2.8765239
H	4.5303154	1.2373826	-1.1465764
H	4.7382840	2.7033772	-2.1319541
C	2.2575355	0.2325658	-2.4840196
H	2.2988201	2.2297333	-1.6863590
H	1.1896236	0.2402377	-2.7336249
H	2.3717879	-0.2412117	-1.5036764
H	2.7764194	-0.3884430	-3.2235665
