37
-0.00441648 (energy)
C	1.4336575	0.6872440	-1.9326919
O	2.5891201	0.9550449	-2.2703774
O	0.3397539	1.3298309	-2.4732569
H	0.6328900	2.0297551	-3.0965140
N	0.0000000	0.0000000	0.0000000
C	1.3914666	1.6814881	1.0495977
H	2.2591092	1.4828725	0.4336857
H	1.5024546	2.4505900	1.8031506
C	-0.9631721	1.3621250	1.8160664
H	-1.2557458	0.5097512	2.4430078
H	-0.7036764	2.1907440	2.4779570
H	-1.8436814	1.6575800	1.2318079
C	-0.8231575	-2.0183108	-0.8707045
C	-1.2772904	-0.6878492	-0.2480159
C	1.0337873	-0.4067247	-0.9488416
C	0.4092672	-1.6199455	-1.7136656
H	-0.5347409	-2.7177497	-0.0777698
H	-1.6040391	-2.4896215	-1.4751344
H	-1.8315376	-0.8347666	0.6817662
H	-1.9175493	-0.1236417	-0.9447407
H	1.9543628	-0.6853367	-0.4218000
H	0.0928192	-1.3071141	-2.7140475
H	1.1312318	-2.4324218	-1.8275427
C	0.2126155	1.0258803	0.9248471
O	3.9528542	-1.8190747	-0.4659246
H	5.5775249	-0.6033757	-0.5785914
C	5.1363713	-1.6054405	-0.7518956
C	6.0877888	-2.6260610	-1.3434674
C	5.4399989	-4.0094243	-1.4859293
H	5.1864700	-4.4205649	-0.5024245
H	6.1236265	-4.7051119	-1.9841710
H	4.5136327	-3.9536286	-2.0651235
C	7.3950811	-2.6583337	-0.5151434
H	6.3465640	-2.2403661	-2.3461431
H	7.8347965	-1.6586940	-0.4143054
H	8.1341633	-3.3051165	-0.9989007
H	7.2068308	-3.0514250	0.4907707
