37
-0.00413752 (energy)
C	-1.1202907	-0.1079966	-2.0368378
O	-1.0386160	-0.1437297	-3.2668358
O	-2.3318946	-0.0814068	-1.3787629
H	-3.0681227	-0.0454586	-2.0275679
N	-0.0425390	0.7898839	0.0356578
C	0.0534177	2.7381880	-1.3996611
H	0.1565022	2.1735082	-2.3173265
H	0.0533582	3.8163491	-1.4958203
C	-0.2156151	3.0235856	1.0660964
H	0.6250443	2.8854135	1.7584808
H	-0.2519817	4.0794239	0.7905429
H	-1.1354047	2.7842044	1.6143957
C	0.4295284	-1.2482216	1.0998812
C	-0.2574724	0.1091574	1.3227219
C	0.0602153	-0.1558846	-1.0731276
C	0.1409072	-1.5589005	-0.3861624
H	1.5079586	-1.1482517	1.2676267
H	0.0503512	-2.0277350	1.7675854
H	0.1934050	0.6704435	2.1442674
H	-1.3290020	-0.0216737	1.5427095
H	0.9494713	0.0544534	-1.6796244
H	-0.8195748	-2.0759688	-0.4804047
H	0.9073476	-2.1850444	-0.8496615
C	-0.0662652	2.1711667	-0.1752277
O	3.1059390	-0.5095553	-2.2360199
H	4.7177672	0.7282580	-2.2352834
C	4.0121876	0.0999623	-2.8150995
C	4.2653734	0.0713891	-4.3090536
C	3.3057869	-0.8745686	-5.0425242
H	3.4671000	-1.9108922	-4.7253388
H	3.4616884	-0.8175575	-6.1251215
H	2.2630177	-0.6252164	-4.8252931
C	5.7539387	-0.2580252	-4.5770738
H	4.0927550	1.1060917	-4.6564399
H	6.4225533	0.4207531	-4.0339237
H	5.9756113	-0.1671682	-5.6453425
H	5.9853342	-1.2842344	-4.2685730
