37
-0.00330325 (energy)
C	-2.6065133	-2.4274853	-0.5067141
O	-3.6397312	-2.9762047	-0.1165727
O	-1.5803695	-3.1279599	-1.1051438
H	-1.7873913	-4.0878091	-1.1153280
N	-0.9825274	-0.5890833	-0.0108070
C	-1.3042936	-1.5127545	2.2047143
H	-2.3311604	-1.8095441	2.0342439
H	-0.9021920	-1.7153479	3.1890660
C	0.9043393	-0.5327720	1.5759335
H	1.0587929	0.5525337	1.5171829
H	1.1675501	-0.8539517	2.5856911
H	1.6070035	-1.0028181	0.8764565
C	-1.2262845	0.6423088	-1.9941247
C	-0.1683368	-0.0225330	-1.0981126
C	-2.3315536	-0.9286285	-0.4572136
C	-2.4375719	-0.3117628	-1.8907836
H	-1.4816261	1.6299560	-1.5935024
H	-0.8856113	0.7694689	-3.0261215
H	0.5571442	0.6970284	-0.7118766
H	0.3808508	-0.8034398	-1.6478986
H	-3.0814140	-0.5098889	0.2248591
H	-2.3561911	-1.1023760	-2.6438272
H	-3.3952119	0.1943527	-2.0360119
C	-0.5280449	-0.9131776	1.2703590
O	3.1775584	-1.5128904	-0.7263262
H	4.5971365	-1.5640384	-2.1797204
C	3.6667479	-1.9920647	-1.7555090
C	3.0931410	-3.1614566	-2.5303099
C	1.8530742	-3.7560710	-1.8503914
H	2.1144831	-4.1846369	-0.8764346
H	1.4172068	-4.5477261	-2.4691599
H	1.0926733	-2.9891585	-1.6761243
C	4.2018924	-4.2122851	-2.7805200
H	2.8061524	-2.7495855	-3.5147303
H	5.0836587	-3.7647815	-3.2548891
H	3.8308006	-5.0053417	-3.4377442
H	4.5186305	-4.6733765	-1.8377083
