37
-0.00320169 (energy)
C	3.2970513	1.4023419	-0.3259538
O	4.4296095	1.5749782	0.1305013
O	2.6042698	2.4013048	-0.9770150
H	3.1227118	3.2351785	-0.9649864
N	1.1223330	0.2235781	0.0536414
C	1.6042268	1.0076953	2.2937698
H	2.6792561	0.9394944	2.1876570
H	1.2361514	1.3440286	3.2545395
C	-0.7639470	0.8224670	1.5248524
H	-1.2711538	-0.1479426	1.4458426
H	-0.9630739	1.2239309	2.5204537
H	-1.2243697	1.4944810	0.7897630
C	1.0544188	-1.0383490	-1.9242921
C	0.2309927	-0.0468099	-1.0858856
C	2.5308826	0.0842752	-0.3083314
C	2.5078733	-0.5470050	-1.7393597
H	0.9379045	-2.0501032	-1.5194190
H	0.7527516	-1.0539678	-2.9759566
H	-0.7160411	-0.4759421	-0.7508600
H	0.0106058	0.8677320	-1.6592351
H	3.0539702	-0.5555095	0.4127176
H	2.7424222	0.2170109	-2.4877135
H	3.2459139	-1.3475724	-1.8326682
C	0.7283321	0.6950101	1.3088278
O	5.1233672	-1.5401750	0.6055500
H	6.1222594	-0.6070314	-0.8983217
C	6.1165493	-1.3916841	-0.1153324
C	7.3861174	-2.2149296	-0.0299979
C	7.3445120	-3.2285523	1.1208537
H	7.2952622	-2.7143196	2.0871530
H	8.2402927	-3.8586790	1.1113657
H	6.4628813	-3.8721233	1.0482111
C	8.6118597	-1.2725167	0.0447626
H	7.4500156	-2.7573674	-0.9906029
H	8.6158826	-0.5480705	-0.7786201
H	9.5391053	-1.8519379	-0.0107210
H	8.6155862	-0.7158189	0.9891648
