37
-0.00293652 (energy)
C	-2.0487448	0.9121196	1.1107020
O	-3.2743812	1.0093898	1.0148040
O	-1.2697142	1.9131178	1.6518744
H	-1.8273586	2.6875698	1.8832377
N	0.0000000	0.0000000	0.0000000
C	-1.1669135	0.9311294	-1.9069734
H	-2.1569475	0.7445956	-1.5111993
H	-1.1189887	1.3889708	-2.8866481
C	1.3294198	0.9186915	-1.8627483
H	1.9055530	0.0017554	-2.0430115
H	1.2013711	1.4270341	-2.8204738
H	1.9344892	1.5645332	-1.2141130
C	0.7297736	-1.4227827	1.7182587
C	1.2010126	-0.2806475	0.8030720
C	-1.2288163	-0.3141184	0.7251080
C	-0.7458492	-1.0670643	2.0083465
H	0.7954136	-2.3764897	1.1822748
H	1.3244351	-1.5030374	2.6332353
H	2.0378469	-0.5790427	0.1675107
H	1.5127366	0.5957265	1.3933971
H	-1.8918950	-0.9356796	0.1112309
H	-0.8065962	-0.4019667	2.8759420
H	-1.3658318	-1.9436913	2.2119767
C	-0.0225583	0.6210409	-1.2517097
O	3.2711140	-1.7271314	-2.7009287
H	3.8777613	-3.4553483	-1.8203506
C	3.7536572	-2.8641861	-2.7498183
C	4.2135318	-3.5619819	-4.0141026
C	3.9437839	-2.7240901	-5.2706035
H	2.8670025	-2.5861721	-5.4193168
H	4.3534681	-3.2182333	-6.1580458
H	4.3916048	-1.7296382	-5.1854253
C	3.5817788	-4.9732639	-4.0872240
H	5.3035822	-3.6985059	-3.8947919
H	3.7749570	-5.5506429	-3.1750217
H	3.9962255	-5.5304165	-4.9336321
H	2.4962738	-4.9052366	-4.2246041
