37
-0.00275337 (energy)
C	2.4167234	0.4293203	0.4879636
O	3.5647038	0.0489608	0.2464889
O	2.0465285	0.9187039	1.7229588
H	2.8014210	0.8633062	2.3485309
N	0.0000000	0.0000000	0.0000000
C	0.8016133	-2.2628055	0.3199439
H	1.7946261	-2.0654129	-0.0628894
H	0.6005561	-3.2788802	0.6343421
C	-1.5353200	-1.6692860	0.9682247
H	-2.3255225	-1.5327248	0.2184734
H	-1.5541629	-2.7131117	1.2877864
H	-1.7919691	-1.0449862	1.8332850
C	-0.5483681	2.0840836	-0.9301511
C	-0.9798750	1.0867891	0.1576499
C	1.2756320	0.4847818	-0.5217193
C	0.9924709	1.9661062	-0.9369102
H	-0.9601478	1.7759630	-1.8979545
H	-0.8850845	3.1046589	-0.7244974
H	-1.9983618	0.7229827	0.0040303
H	-0.9254653	1.5451294	1.1579753
H	1.6012368	-0.1238945	-1.3739820
H	1.4230859	2.6493368	-0.1976310
H	1.4356923	2.1983630	-1.9084708
C	-0.1702198	-1.3237999	0.4141942
O	-4.4326032	-0.7294954	-0.2267642
H	-4.9676327	1.0535843	-1.0419594
C	-5.2730596	0.1333819	-0.5046263
C	-6.7484205	0.0532699	-0.1674161
C	-7.1190873	-1.2752083	0.5044270
H	-6.9569913	-2.1138159	-0.1819091
H	-8.1725242	-1.2742083	0.8041644
H	-6.5030814	-1.4547215	1.3904547
C	-7.5872542	0.3380171	-1.4368460
H	-6.9341198	0.8825671	0.5388882
H	-7.2981217	1.2848677	-1.9087294
H	-8.6504478	0.3982007	-1.1827024
H	-7.4593358	-0.4635641	-2.1736815
