37
-0.00256734 (energy)
C	1.6627759	0.5235644	1.5415834
O	2.5538918	1.3044984	1.8834855
O	1.3935446	-0.6374109	2.2354166
H	2.0336080	-0.7470255	2.9720139
N	0.4805004	-0.4543860	-0.4354886
C	2.7799714	-0.5676861	-1.1870424
H	3.0969089	0.3187491	-0.6528302
H	3.5350248	-1.0674885	-1.7801444
C	1.1471680	-2.3099749	-1.9165446
H	0.3913837	-2.1067847	-2.6864146
H	2.0297314	-2.7175888	-2.4135148
H	0.7417135	-3.0857894	-1.2549806
C	-1.6944963	0.2791999	0.0549538
C	-0.8840614	-0.9836230	-0.2805744
C	0.7004397	0.7385802	0.3786980
C	-0.7199635	1.1153177	0.9148038
H	-1.9450289	0.8134364	-0.8686095
H	-2.6258226	0.0548096	0.5836557
H	-1.2268282	-1.4620916	-1.2008179
H	-0.9467713	-1.7216696	0.5349264
H	1.1367159	1.5436586	-0.2249315
H	-0.8093963	0.8281047	1.9675513
H	-0.8997507	2.1908640	0.8427259
C	1.5180965	-1.0589995	-1.1502016
O	4.0155920	6.6355055	5.0163906
H	5.1882426	5.1091534	5.6685506
C	4.5296723	5.5199497	4.8771490
C	4.3392649	4.6166520	3.6752268
C	3.3583107	5.2076701	2.6544194
H	2.3547674	5.2911300	3.0863110
H	3.2985807	4.5713958	1.7649477
H	3.6659049	6.2114421	2.3469114
C	3.9308599	3.2008437	4.1494287
H	5.3385122	4.5295737	3.2115393
H	4.6371908	2.8021138	4.8876079
H	3.9038785	2.5101214	3.3004491
H	2.9339634	3.2174162	4.6052190
