37
-0.00259381 (energy)
C	-0.3134333	-0.3695553	0.0685860
O	-0.9091278	0.7101107	0.0509200
O	1.0538955	-0.4599211	-0.0863324
H	1.4344304	0.4295417	-0.2546214
N	-0.4851198	-2.7839401	-0.5672173
C	-1.3789558	-1.7317132	-2.5569692
H	-1.8076928	-0.8877483	-2.0320812
H	-1.5273535	-1.7572687	-3.6288848
C	-0.1114456	-3.8743764	-2.7472400
H	-0.5570032	-4.8361568	-2.4614903
H	-0.3016965	-3.7205298	-3.8112806
H	0.9732347	-3.9598972	-2.6054544
C	-0.2513692	-3.7292663	1.5684353
C	0.3260348	-3.7847526	0.1444860
C	-0.9573301	-1.7276351	0.3247910
C	-0.5964483	-2.2351217	1.7597501
H	-1.1585743	-4.3417411	1.6231878
H	0.4523953	-4.0921752	2.3235895
H	0.2162805	-4.7731109	-0.3075883
H	1.3958817	-3.5218742	0.1413758
H	-2.0365661	-1.5738046	0.2046131
H	0.2777311	-1.6948037	2.1374189
H	-1.4209192	-2.0718463	2.4582538
C	-0.6914808	-2.7276559	-1.9482405
O	3.1193909	0.4454803	1.3082712
H	4.9865847	1.1698321	1.6533426
C	4.1212705	0.5816525	2.0194857
C	4.2908236	-0.0034530	3.4071895
C	3.0317767	-0.7382180	3.8852506
H	2.1937963	-0.0402539	3.9912226
H	3.2087846	-1.2136735	4.8559116
H	2.7276625	-1.5071047	3.1689676
C	4.7460694	1.1058210	4.3861879
H	5.1232763	-0.7251932	3.3223520
H	5.6389418	1.6269197	4.0200836
H	4.9840901	0.6740389	5.3636857
H	3.9516410	1.8479579	4.5273912
