37
-0.00255141 (energy)
C	1.0595519	-1.4456534	-1.7465429
O	0.8359505	-2.3245887	-2.5821970
O	2.2367473	-1.3915359	-1.0302776
H	2.8047007	-2.1604276	-1.2550145
N	0.0000000	0.0000000	0.0000000
C	-1.0518398	-2.1278427	0.4807863
H	-1.0432629	-2.4706704	-0.5458563
H	-1.4927668	-2.7976549	1.2078440
C	-0.5928658	-0.5214217	2.3361960
H	-1.2092540	0.3738023	2.4905838
H	-1.0158233	-1.3269566	2.9397415
H	0.4103703	-0.2998031	2.7213595
C	0.5223362	2.0981242	-0.9134181
C	0.6367403	1.2718632	0.3782127
C	0.1348004	-0.2759531	-1.4283278
C	0.7101187	1.0477927	-2.0313136
H	-0.4743331	2.5496687	-0.9758881
H	1.2650593	2.8997146	-0.9687405
H	0.1136927	1.7395032	1.2154722
H	1.6909799	1.1322392	0.6659120
H	-0.8369170	-0.5361402	-1.8652772
H	1.7751113	0.9243480	-2.2533925
H	0.2011553	1.3155082	-2.9606162
C	-0.5550824	-0.9325988	0.8804094
O	2.3233864	4.1951251	-2.5435084
H	4.1634619	4.7764999	-3.1809235
C	3.0801318	4.9976122	-3.1016146
C	2.6527456	6.3151020	-3.7167407
C	1.1348102	6.5249731	-3.6429334
H	0.6108407	5.7701293	-4.2398103
H	0.8640778	7.5150085	-4.0251722
H	0.7736947	6.4360394	-2.6141381
C	3.2028508	6.4167951	-5.1600765
H	3.1575703	7.0959449	-3.1196475
H	4.2864873	6.2510361	-5.1925322
H	3.0006691	7.4102139	-5.5733964
H	2.7245013	5.6749715	-5.8102313
