37
-0.00238162 (energy)
C	-0.2922558	0.1317166	-0.3698012
O	0.8552745	-0.0731630	-0.7723446
O	-0.6438236	-0.0051564	0.9566300
H	0.1239603	-0.3253423	1.4784164
N	-2.7127536	-0.0751740	-0.9709355
C	-1.8773098	-2.2174143	-1.7312490
H	-0.8945830	-1.8470535	-1.9933186
H	-2.0596340	-3.2686074	-1.9140847
C	-4.2080029	-2.0327249	-0.8551496
H	-5.0145457	-1.5843051	-1.4497960
H	-4.2077202	-3.1073156	-1.0482856
H	-4.4550510	-1.8782429	0.2027023
C	-3.3049471	2.1921874	-0.8379986
C	-3.7025351	0.7995062	-0.3217927
C	-1.4537593	0.6198573	-1.2284356
C	-1.7632173	2.1211403	-0.9165524
H	-3.7320557	2.3524633	-1.8345096
H	-3.6499815	2.9988876	-0.1842162
H	-4.7193414	0.5259265	-0.6125306
H	-3.6338924	0.7507950	0.7766619
H	-1.1377115	0.4747928	-2.2685927
H	-1.3264065	2.3992462	0.0481342
H	-1.3422463	2.7806797	-1.6795135
C	-2.8585012	-1.4449900	-1.2061791
O	5.9255961	1.8383634	1.5312606
H	6.2870410	-0.0555709	0.8889655
C	5.5874147	0.8022302	0.9479999
C	4.2482575	0.5788420	0.2745210
C	3.2998975	1.7706377	0.4585256
H	3.0469815	1.9035299	1.5163385
H	2.3712406	1.6134605	-0.1004595
H	3.7627938	2.7001229	0.1142614
C	3.6366037	-0.7557697	0.7653028
H	4.4760337	0.4574918	-0.7999444
H	4.3345842	-1.5919375	0.6370687
H	2.7269426	-0.9856743	0.2011643
H	3.3707030	-0.6929180	1.8269847
