37
-0.00184138 (energy)
C	1.2737030	-0.8421508	-1.7560995
O	2.1931843	-1.5837337	-2.1102908
O	0.5836861	-0.0463455	-2.6462255
H	0.9680602	-0.1334914	-3.5456332
N	0.4657268	0.6329935	0.0970329
C	2.7985232	1.2758672	-0.0030235
H	3.1512615	0.3005656	-0.3128007
H	3.5535558	2.0394499	0.1331567
C	1.0722856	2.9600126	0.6431567
H	0.6084593	2.9588357	1.6381742
H	1.9422190	3.6187066	0.6803671
H	0.3473916	3.3946033	-0.0565632
C	-1.5453227	-0.4765424	0.5806681
C	-0.9734806	0.9082418	0.2350169
C	0.7213523	-0.7378161	-0.3388317
C	-0.6710269	-1.4448241	-0.2476957
H	-1.4213203	-0.6703140	1.6522186
H	-2.6083358	-0.5667845	0.3375533
H	-1.1596593	1.6406977	1.0237598
H	-1.4083288	1.2928548	-0.7012880
H	1.4664638	-1.2166426	0.3079997
H	-1.0940316	-1.5658967	-1.2502801
H	-0.5846322	-2.4364872	0.2033683
C	1.4950828	1.5702431	0.2193736
O	3.7117311	-7.3632066	-1.2225495
H	1.7501719	-6.9286161	-1.5284732
C	2.7801252	-6.5604541	-1.3483683
C	2.9136681	-5.0525010	-1.2772188
C	4.3459998	-4.6113406	-0.9494615
H	4.6358558	-4.9517294	0.0508955
H	4.4288303	-3.5196314	-0.9791714
H	5.0619462	-5.0362822	-1.6590944
C	1.8694780	-4.4851262	-0.2852872
H	2.6409410	-4.6853136	-2.2831398
H	0.8548403	-4.8224700	-0.5292276
H	1.8770674	-3.3906807	-0.3121783
H	2.0969867	-4.8009697	0.7395565
