37
-0.00180198 (energy)
C	-1.2737029	-1.5831825	-1.1343001
O	-2.1931842	-1.8032185	-1.9261213
O	-0.5836859	-2.5979756	-0.5051535
H	-0.9680600	-3.4685866	-0.7471560
N	-0.4657268	-0.0143594	0.6402265
C	-2.7985232	-0.2245297	1.2559589
H	-3.1512615	-0.3602414	0.2416821
H	-3.5535558	-0.2230131	2.0315886
C	-1.0722856	0.1193850	3.0267263
H	-0.6084593	1.0994903	3.1983503
H	-1.9422190	0.0416490	3.6818749
H	-0.3473916	-0.6451704	3.3332096
C	1.5453226	0.6545973	-0.3684708
C	0.9734806	0.0737320	0.9352539
C	-0.7213523	-0.2055637	-0.7854445
C	0.6710269	0.0069584	-1.4658859
H	1.4213202	1.7435165	-0.3732258
H	2.6083358	0.4308463	-0.4995583
H	1.1596593	0.7233025	1.7935458
H	1.4083289	-0.9151357	1.1514361
H	-1.4664638	0.5145881	-1.1446755
H	1.0940316	-0.9593704	-1.7592161
H	0.5846321	0.6233702	-2.3641570
C	-1.4950828	-0.0566290	1.5844814
O	4.2333852	-0.8115273	0.5508593
H	5.0776010	-0.3608667	-1.2420092
C	5.1487246	-0.8987835	-0.2753801
C	6.4175344	-1.7061795	-0.0881582
C	6.4895166	-2.3615799	1.2970819
H	6.5404446	-1.5996876	2.0829073
H	7.3775125	-2.9977977	1.3762197
H	5.6028420	-2.9721644	1.4913194
C	7.6477897	-0.8187275	-0.3965022
H	6.3816594	-2.4940623	-0.8621333
H	7.5706764	-0.3497332	-1.3848823
H	8.5625919	-1.4198948	-0.3784346
H	7.7493430	-0.0237381	0.3514957
