37
-0.00177652 (energy)
C	0.3134334	0.3695552	0.0685860
O	0.9091278	-0.7101107	0.0509201
O	-1.0538954	0.4599211	-0.0863324
H	-1.4344304	-0.4295417	-0.2546214
N	0.4851200	2.7839400	-0.5672175
C	1.3789560	1.7317130	-2.5569693
H	1.8076929	0.8877481	-2.0320812
H	1.5273537	1.7572685	-3.6288849
C	0.1114459	3.8743762	-2.7472402
H	0.5570035	4.8361567	-2.4614906
H	0.3016967	3.7205295	-3.8112808
H	-0.9732344	3.9598971	-2.6054546
C	0.2513694	3.7292664	1.5684351
C	-0.3260346	3.7847526	0.1444858
C	0.9573302	1.7276351	0.3247909
C	0.5964484	2.2351217	1.7597500
H	1.1585745	4.3417411	1.6231876
H	-0.4523951	4.0921753	2.3235893
H	-0.2162803	4.7731109	-0.3075886
H	-1.3958815	3.5218743	0.1413756
H	2.0365661	1.5738045	0.2046130
H	-0.2777310	1.6948038	2.1374188
H	1.4209193	2.0718464	2.4582537
C	0.6914810	2.7276557	-1.9482406
O	6.9274069	1.1982754	1.8386230
H	6.7914304	1.5827513	-0.1523219
C	6.2934322	1.2442920	0.7783918
C	4.8346743	0.8658615	0.6182849
C	4.2264644	0.3336674	1.9223062
H	4.7126687	-0.6013784	2.2221224
H	3.1557633	0.1402153	1.7968151
H	4.3597748	1.0478096	2.7402076
C	4.6815890	-0.1233309	-0.5624939
H	4.3185079	1.7995603	0.3304264
H	5.1338457	0.2700479	-1.4809243
H	3.6221269	-0.3134994	-0.7624134
H	5.1603333	-1.0816775	-0.3296903
