37
-0.00160353 (energy)
C	2.4932093	-0.2153518	0.0225161
O	3.4250705	-0.9758155	0.2948621
O	2.5765011	1.1486974	0.2074104
H	3.4375906	1.3821475	0.6176518
N	0.0000000	0.0000000	0.0000000
C	0.3396268	-1.0524975	2.1545625
H	1.2158463	-1.6099333	1.8494326
H	0.0096877	-1.1960515	3.1754495
C	-1.5560378	0.5406728	1.8351026
H	-2.4649997	0.2547065	1.2899350
H	-1.7194996	0.3271653	2.8932810
H	-1.4333111	1.6252422	1.7228727
C	-0.3008214	0.3839676	-2.2959461
C	-0.6405501	0.9613073	-0.9119775
C	1.1685877	-0.6338656	-0.6058538
C	1.1193859	-0.1950549	-2.1064904
H	-1.0090739	-0.4137436	-2.5473017
H	-0.3389798	1.1374528	-3.0884416
H	-1.7178449	1.0102942	-0.7378922
H	-0.2265694	1.9754494	-0.7944076
H	1.1174458	-1.7239448	-0.4964523
H	1.8679304	0.5820359	-2.2924413
H	1.3323871	-1.0342746	-2.7733182
C	-0.3424669	-0.2141702	1.3378436
O	3.5275724	-0.2396985	7.1456357
H	2.8617682	1.6082034	6.6239692
C	3.0699827	0.5617887	6.3232237
C	2.7509114	0.2396893	4.8771035
C	3.1332346	-1.1986288	4.5046907
H	4.2172790	-1.3411993	4.5762210
H	2.8229059	-1.4261778	3.4792687
H	2.6638557	-1.9193488	5.1806934
C	3.4084557	1.2934474	3.9533045
H	1.6566148	0.3613051	4.7832499
H	3.1330597	2.3144147	4.2441313
H	3.0902153	1.1400414	2.9170703
H	4.5011089	1.2115859	3.9883715
