37
-0.00645296 (energy)
C	2.3569227	-0.6279316	0.6393656
O	3.0691533	-0.9525452	1.5879288
O	2.5847374	-1.1545310	-0.6039641
H	1.9947845	-0.7984269	-1.3173213
N	0.0000000	0.0000000	0.0000000
C	0.8426102	0.7605602	-2.1445601
H	1.7244022	1.2475294	-1.7438596
H	0.6827660	0.8656949	-3.2090591
C	-1.3790081	-0.3684255	-2.0086400
H	-2.2623594	0.1955606	-1.6838397
H	-1.3141560	-0.2869422	-3.0950323
H	-1.5456912	-1.4209329	-1.7523505
C	-0.8210102	0.2785757	2.1932116
C	-1.0435975	-0.5286452	0.9019382
C	1.1962184	0.3897411	0.7728457
C	0.7108129	0.4947423	2.2459807
H	-1.3447112	1.2384237	2.1183388
H	-1.1968385	-0.2425791	3.0787246
H	-2.0388980	-0.3795374	0.4806022
H	-0.9060772	-1.6062844	1.0801194
H	1.5665882	1.3583113	0.4071042
H	1.2107657	-0.2728356	2.8416526
H	0.9722759	1.4624178	2.6815608
C	-0.1166704	0.1722815	-1.3716009
O	3.6226594	2.3804329	0.3294199
H	5.2025496	1.9492400	-0.8739887
C	4.7489858	2.6222753	-0.1189469
C	5.6107570	3.8032209	0.2804728
C	4.8964441	4.7357610	1.2672592
H	4.0177827	5.1936029	0.7993597
H	5.5681382	5.5361698	1.5955051
H	4.5489194	4.1872003	2.1476234
C	6.1047795	4.5382784	-0.9890971
H	6.4994229	3.3663013	0.7708379
H	6.6004797	3.8522586	-1.6865608
H	6.8209569	5.3210668	-0.7190528
H	5.2665568	5.0115572	-1.5137035
