37
-0.00602926 (energy)
C	0.2078856	-0.2225196	0.3599005
O	-0.0891225	-1.0436213	-0.5061232
O	-0.0818718	1.1035358	0.1790888
H	0.2385454	1.6986166	0.9049983
N	0.4120650	0.1070277	2.8514623
C	1.6217633	2.1666872	2.4248302
H	2.2218115	1.7696401	1.6139340
H	1.8377757	3.1834922	2.7235067
C	0.0458987	2.0247424	4.3549010
H	0.3622912	1.5407608	5.2873937
H	0.2889906	3.0858562	4.4326012
H	-1.0433480	1.9260763	4.2838656
C	0.2060711	-2.1640574	3.4527758
C	-0.4427829	-0.7842817	3.6619292
C	0.9320647	-0.6139922	1.6725401
C	0.7280115	-2.1207756	1.9961704
H	1.0362378	-2.2874950	4.1575901
H	-0.4997509	-2.9839091	3.6159973
H	-0.4479247	-0.4777840	4.7090266
H	-1.4819781	-0.7763828	3.2986422
H	1.9977849	-0.3770747	1.5414703
H	0.0067856	-2.5422189	1.2917755
H	1.6589854	-2.6811251	1.8787609
C	0.7446880	1.4188691	3.1564477
O	2.8287874	0.5648962	-0.3801802
H	3.5328517	-0.4713436	-1.9803906
C	3.5843703	0.4393314	-1.3504686
C	4.6223181	1.4550695	-1.7837802
C	4.5898900	2.7227617	-0.9203416
H	3.6361965	3.2485064	-1.0414048
H	5.3977421	3.4045025	-1.2070073
H	4.6965032	2.4801530	0.1410292
C	4.4578878	1.7534479	-3.2937829
H	5.5977412	0.9519848	-1.6551750
H	4.4707549	0.8340114	-3.8915022
H	5.2727154	2.3953185	-3.6439969
H	3.5111642	2.2719007	-3.4854684
