37
-0.00568895 (energy)
C	1.5888121	3.1059133	-0.1839322
O	1.9397822	4.2627183	-0.4098542
O	1.9116443	2.1051823	-1.0610822
H	1.5448180	1.2146372	-0.8242256
N	1.1967740	1.4338181	1.6623003
C	0.0549667	0.0141097	0.0597130
H	-0.4862123	0.8183319	-0.4256826
H	-0.1682671	-0.9863340	-0.2853094
C	1.4739022	-1.0082278	1.8401957
H	1.0788195	-1.1255666	2.8570666
H	1.2414976	-1.9195987	1.2865851
H	2.5637687	-0.9210917	1.9166017
C	1.3212780	2.9609265	3.4551411
C	1.9726114	1.6843917	2.8941052
C	0.7590952	2.7105042	1.0634372
C	0.9147198	3.7640864	2.1959194
H	0.4371305	2.6909723	4.0438557
H	1.9998856	3.5226982	4.1038990
H	1.9010460	0.8402509	3.5816260
H	3.0368774	1.8502205	2.6664974
H	-0.2895469	2.6227102	0.7445162
H	1.6820402	4.4866362	1.9076580
H	-0.0126493	4.3218867	2.3486749
C	0.8612422	0.1901545	1.1472263
O	5.5593444	0.9329886	-0.6627741
H	4.1933311	2.3431271	-1.1878358
C	5.2448606	2.0962380	-0.9386042
C	6.1997062	3.2726906	-0.9709701
C	7.6194408	2.8800662	-0.5422265
H	7.6313961	2.5562581	0.5044829
H	8.3022269	3.7299333	-0.6475911
H	7.9983133	2.0496434	-1.1452083
C	5.6192672	4.4356330	-0.1302378
H	6.2171644	3.6084204	-2.0236165
H	4.6000313	4.6919240	-0.4437192
H	6.2412992	5.3298196	-0.2402296
H	5.5925876	4.1694997	0.9329100
