37
-0.00518831 (energy)
C	-1.6622173	1.4569213	-0.8286351
O	-1.9879057	1.5777482	-2.0083581
O	-2.5539480	1.7587885	0.1657329
H	-2.1893287	1.6802745	1.0847659
N	-0.2831246	0.0642703	0.7578067
C	-0.5794442	1.7867206	2.4409412
H	-0.4302755	2.6207513	1.7646288
H	-0.7120122	2.0376838	3.4845909
C	-0.5570980	-0.6175995	3.1098330
H	0.3971280	-1.1480065	3.2194060
H	-0.8127054	-0.1902020	4.0809610
H	-1.3203187	-1.3598547	2.8494664
C	0.9109354	-1.1336544	-0.8856763
C	-0.0414538	-1.3220044	0.3084831
C	-0.2508843	0.9891238	-0.3927296
C	0.4520966	0.1966288	-1.5305082
H	1.9412954	-1.0516529	-0.5212443
H	0.8671738	-1.9714705	-1.5879096
H	0.3996221	-1.9218742	1.1059719
H	-0.9786111	-1.8070313	-0.0052868
H	0.3224905	1.8874723	-0.1220267
H	-0.2599333	0.0318863	-2.3428054
H	1.2912100	0.7601193	-1.9462679
C	-0.4606991	0.4782866	2.0699194
O	-0.5800299	-1.7139751	-3.8037916
H	-0.1687085	-1.6200973	-5.7917993
C	-0.9302191	-1.6295608	-4.9863200
C	-2.3647691	-1.5333760	-5.4655208
C	-3.3702732	-1.6298212	-4.3108429
H	-3.3151338	-2.6136016	-3.8315403
H	-4.3919331	-1.4818096	-4.6767338
H	-3.1615464	-0.8799862	-3.5421336
C	-2.6154022	-2.5896961	-6.5689455
H	-2.4501777	-0.5392594	-5.9404116
H	-1.8788506	-2.5122269	-7.3778260
H	-3.6106665	-2.4538248	-7.0043531
H	-2.5618080	-3.6031896	-6.1544811
