37
-0.0046959 (energy)
C	0.0722553	0.4417188	0.1480654
O	0.0893566	-0.3171705	1.1156465
O	-0.1381864	-0.0534716	-1.1111311
H	-0.0853683	0.6228867	-1.8346522
N	-0.5880431	2.7589987	-0.5951646
C	0.6946182	2.4139858	-2.6257626
H	1.5358220	1.9346261	-2.1380664
H	0.7954501	2.5865779	-3.6886861
C	-1.4463332	3.6939646	-2.7073228
H	-1.4679528	4.7475200	-2.4016452
H	-1.2444766	3.6634884	-3.7794322
H	-2.4455948	3.2784759	-2.5338728
C	-0.9872754	3.6404503	1.5555320
C	-1.6685333	3.3758592	0.2011256
C	0.3038120	1.9683568	0.2763897
C	0.0013766	2.4607698	1.7195920
H	-0.4482345	4.5937520	1.5127810
H	-1.7063560	3.6961260	2.3782141
H	-2.0314935	4.2899058	-0.2712714
H	-2.5208059	2.6882697	0.3143454
H	1.3500899	2.1648826	0.0011645
H	-0.4354368	1.6391676	2.2924073
H	0.9163624	2.7629952	2.2352952
C	-0.3797909	2.9254739	-1.9565973
O	3.2661590	-1.0683102	1.0491692
H	3.1518590	-2.9662584	0.3316032
C	2.8880014	-2.2425338	1.1287146
C	2.0608506	-2.8167521	2.2613723
C	1.7960097	-1.7866567	3.3669871
H	2.7335946	-1.4861692	3.8478582
H	1.1349224	-2.2056628	4.1331268
H	1.3328160	-0.8824849	2.9612058
C	2.7318158	-4.1069368	2.7918482
H	1.1002672	-3.1136444	1.8028768
H	2.9241567	-4.8240686	1.9846776
H	2.0859085	-4.5940245	3.5295073
H	3.6870052	-3.8754182	3.2774759
