37
-0.00786196 (energy)
C	0.3843871	-0.2810606	0.0208289
O	-0.5808367	-0.9076858	0.4373495
O	0.2251644	1.0273744	-0.4102400
H	1.0679444	1.4469958	-0.6782525
N	2.2223372	-1.6306276	1.0290606
C	2.2985226	0.3252635	2.4535702
H	1.9364694	1.0078125	1.6959140
H	2.5094867	0.7581896	3.4223985
C	2.4507091	-1.0062459	2.2578676
C	2.9087715	-1.9091626	3.3819098
H	3.8725951	-2.3843981	3.1581462
H	3.0256555	-1.3305175	4.3001822
H	2.1835709	-2.7089079	3.5762006
C	2.5984634	-3.1213257	-0.7487138
C	2.3168182	-3.0772969	0.7618803
C	1.7943868	-0.8803952	-0.1454062
C	1.7756451	-1.9356811	-1.2975271
H	3.6679236	-2.9662894	-0.9322650
H	2.3073253	-4.0723018	-1.2044309
H	3.1196743	-3.5332019	1.3454883
H	1.3770270	-3.5957471	1.0050432
H	2.5153714	-0.0708618	-0.3484558
H	0.7433746	-2.2516531	-1.4807412
H	2.1782020	-1.5278327	-2.2286941
O	1.6854872	3.6350998	0.3990139
H	-0.0126720	3.4768085	-0.7061432
C	0.5987340	4.0708147	0.0024640
C	-0.0082322	5.3987538	0.4086513
C	0.8477199	6.1347901	1.4475053
H	0.8941031	5.5660814	2.3829272
H	0.4251274	7.1215423	1.6650100
H	1.8744530	6.2640256	1.0927507
C	-1.4667416	5.1806258	0.8791254
H	-0.0509613	5.9984592	-0.5185010
H	-2.0576146	4.6419942	0.1284307
H	-1.9531283	6.1438355	1.0641843
H	-1.4911181	4.6035951	1.8109320
