37
-0.00334463 (energy)
C	-1.9165057	-1.7117907	-0.1258797
O	-1.9393159	-2.7937477	-0.7084938
O	-2.5017336	-1.5231176	1.0976233
H	-2.3386185	-0.5780617	1.3584521
N	-1.4085531	0.7185741	0.1796317
C	-2.3213631	2.9636676	0.3341903
H	-1.4612041	3.3583233	0.8592374
H	-3.1412276	3.6506572	0.1667118
C	-2.4175453	1.6845591	-0.0841753
C	-3.6480041	1.1752311	-0.8030572
H	-4.0665784	0.2897461	-0.3096400
H	-4.4174302	1.9497823	-0.8185069
H	-3.4366585	0.9002888	-1.8441058
C	0.7946651	-0.0673693	0.6283590
C	-0.1191181	1.1587662	0.7737701
C	-1.2024048	-0.4723027	-0.6941806
C	0.3355422	-0.6816705	-0.7098171
H	1.8536821	0.2047866	0.6280410
H	0.6291769	-0.7722842	1.4520573
H	0.2807306	2.0192681	0.2147769
H	-0.2653719	1.4727907	1.8120992
H	-1.5834470	-0.3156463	-1.7066944
H	0.5944822	-1.7362245	-0.8277075
H	0.7687082	-0.1276059	-1.5503231
O	-3.7414299	-6.5113649	2.0464226
H	-3.6781902	-4.6982242	2.9622252
C	-3.1808831	-5.4406714	2.3062963
C	-1.8173447	-5.0238327	1.7926555
C	-1.1507039	-6.1239440	0.9566133
H	-0.9447219	-7.0062921	1.5727532
H	-0.2035831	-5.7680730	0.5372201
H	-1.7992367	-6.4432780	0.1355381
C	-0.9378494	-4.5543214	2.9768102
H	-2.0010783	-4.1416107	1.1531164
H	-1.4374143	-3.7778731	3.5687226
H	0.0064780	-4.1418525	2.6070712
H	-0.7041205	-5.3934372	3.6424509
