37
-0.00297033 (energy)
C	-2.9456687	-1.5979409	0.0890387
O	-3.4768658	-2.5276842	0.6923605
O	-2.6732096	-1.6518098	-1.2518241
H	-2.2585657	-0.7839730	-1.5022210
N	-1.8612179	0.6403261	-0.1795758
C	0.1951510	1.8374510	-0.6651623
H	-0.3147270	2.7439765	-0.9643898
H	1.2746693	1.8415495	-0.7476537
C	-0.4435046	0.7311982	-0.2307394
C	0.3132910	-0.5185247	0.1638340
H	-0.0472723	-1.3985075	-0.3824014
H	1.3756964	-0.3953371	-0.0559482
H	0.2220074	-0.7384229	1.2349804
C	-4.0938711	1.4510904	-0.0030697
C	-2.6767207	1.8564281	-0.4354337
C	-2.5641227	-0.2708359	0.7690766
C	-3.8334324	0.5147649	1.1945701
H	-4.7079798	2.3161954	0.2615995
H	-4.6041634	0.9109859	-0.8097042
H	-2.3029681	2.6968274	0.1702508
H	-2.6084785	2.1464743	-1.4886882
H	-1.9505215	-0.5182753	1.6392408
H	-4.6629659	-0.1584127	1.4220308
H	-3.6129203	1.1010446	2.0938595
O	3.5433945	2.1558367	-0.5736145
H	5.4955639	2.5999355	-0.2243527
C	4.4682978	2.9630596	-0.4284362
C	4.3296133	4.4702480	-0.5056895
C	2.9030841	4.9042519	-0.8666275
H	2.6374438	4.5605921	-1.8725740
H	2.8146920	5.9956295	-0.8410446
H	2.1732026	4.4774506	-0.1724754
C	5.3933901	5.0404202	-1.4749459
H	4.5778829	4.8406392	0.5053774
H	6.4037634	4.7081692	-1.2074528
H	5.3802707	6.1348704	-1.4504871
H	5.1905236	4.7215407	-2.5040150
