37
-0.00802947 (energy)
C	-1.2436936	0.4046452	-2.1324903
O	-1.8782223	1.0535355	-2.9612876
O	-0.9921360	-0.9330319	-2.2821156
H	-0.4588121	-1.2213273	-1.4945750
N	0.0000000	-0.0000000	0.0000000
C	-0.0163578	-1.1024788	2.1637533
H	1.0600726	-1.0717057	2.2716965
H	-0.5664763	-1.5967760	2.9544627
C	-0.6748120	-0.5868860	1.1049796
C	-2.1818483	-0.6666375	0.9922130
H	-2.4923411	-1.1288793	0.0473979
H	-2.5852243	-1.2658189	1.8110256
H	-2.6549765	0.3220743	1.0436059
C	1.7721676	1.1236478	-1.1269745
C	1.4669764	0.2254038	0.0811515
C	-0.6410710	1.0333981	-0.8633361
C	0.5119621	2.0074187	-1.2254949
H	2.6874704	1.7054516	-0.9880105
H	1.8915993	0.5213838	-2.0357013
H	1.7201290	0.7322205	1.0255382
H	2.0011103	-0.7297877	0.0601962
H	-1.4486143	1.5613501	-0.3494693
H	0.3604156	2.4587312	-2.2085427
H	0.5537910	2.8123523	-0.4829297
O	0.7172521	-3.0566764	-0.7617476
H	2.0864523	-4.2016319	-1.7336224
C	1.0241463	-4.0182252	-1.4754502
C	0.0456035	-5.0174575	-2.0592373
C	-1.3950560	-4.7540874	-1.6023373
H	-1.4882890	-4.8918076	-0.5193156
H	-2.0879659	-5.4424558	-2.0979150
H	-1.6993700	-3.7279055	-1.8283398
C	0.5217462	-6.4559611	-1.7427395
H	0.1097424	-4.8863790	-3.1545859
H	1.5571497	-6.6194464	-2.0652444
H	-0.1113983	-7.1862754	-2.2568998
H	0.4640997	-6.6551639	-0.6662558
