37
-0.00231363 (energy)
C	0.4232693	0.1215794	0.1021994
O	-0.2912857	0.4144004	1.0583674
O	-0.0700216	-0.4682745	-1.0308431
H	0.6944127	-0.5926050	-1.6537002
N	2.5609351	-0.1212561	-1.1742967
C	4.1942042	-1.6655215	-2.0936614
H	4.5714006	-0.9540088	-2.8166923
H	4.6266217	-2.6576753	-2.1224294
C	3.2211999	-1.3798158	-1.2036984
C	2.7167754	-2.4136424	-0.2203402
H	1.6287686	-2.5354349	-0.2848108
H	3.1787165	-3.3810418	-0.4275441
H	2.9554587	-2.1504283	0.8178270
C	2.3225058	2.2250706	-1.5076673
C	3.0720121	0.9871052	-2.0226763
C	1.9335301	0.4167396	0.0671365
C	2.1945204	1.9455383	0.0037414
H	2.8605004	3.1523980	-1.7226361
H	1.3310087	2.2967612	-1.9708783
H	4.1592770	1.0972514	-1.8865200
H	2.8869432	0.7740895	-3.0802692
H	2.3682053	-0.0143331	0.9727591
H	1.3972819	2.5081103	0.4946139
H	3.1374870	2.1741634	0.5132662
O	3.7235057	-3.5467544	2.4733497
H	3.9677337	-3.1092745	4.4429021
C	4.0868762	-3.8400411	3.6179354
C	4.7079512	-5.1617296	4.0231806
C	4.7734886	-6.1546507	2.8555189
H	3.7656791	-6.4254342	2.5214660
H	5.2937745	-7.0699591	3.1573230
H	5.2962802	-5.7212675	1.9978468
C	3.9604908	-5.7310010	5.2533873
H	5.7345285	-4.9162746	4.3502504
H	3.9135003	-5.0017908	6.0712148
H	4.4710220	-6.6246422	5.6266901
H	2.9347939	-6.0122845	4.9875916
