37
-0.00211395 (energy)
C	3.8328900	1.1937799	-2.6219564
O	4.4634487	1.4708779	-3.6398968
O	4.2977285	0.3071644	-1.6876722
H	3.6198630	0.2628656	-0.9622035
N	1.9024984	1.2536703	-1.0319791
C	0.0536145	0.0147747	-0.0602171
H	-0.0160960	0.6544502	0.8099880
H	-0.6222826	-0.8303704	-0.0929934
C	0.9376264	0.2101237	-1.0605976
C	1.0064212	-0.7207929	-2.2517720
H	2.0195845	-1.1138341	-2.3993097
H	0.3332445	-1.5673115	-2.1020256
H	0.7090966	-0.2246331	-3.1842237
C	2.8077215	3.3712495	-0.4239798
C	1.8291606	2.2815633	0.0392210
C	2.4774105	1.8370702	-2.2783150
C	2.6494464	3.3460953	-1.9579913
H	2.5740275	4.3473711	0.0097937
H	3.8351112	3.1142453	-0.1390417
H	0.8038451	2.6762469	0.1151721
H	2.0915415	1.8428128	1.0070967
H	1.8239815	1.6955536	-3.1431400
H	3.4946575	3.7762048	-2.4998919
H	1.7430286	3.8857825	-2.2550021
O	-2.2615333	-2.3145416	0.5306859
H	-2.9684480	-4.1747134	0.9432455
C	-3.0632028	-3.2392081	0.3561882
C	-4.2164324	-3.2187643	-0.6268998
C	-4.3392246	-1.8711974	-1.3498154
H	-4.5805386	-1.0723175	-0.6397776
H	-5.1307321	-1.9106688	-2.1058117
H	-3.3998630	-1.5993942	-1.8401788
C	-5.5214570	-3.6332107	0.0951252
H	-3.9874701	-4.0083508	-1.3652854
H	-5.4086917	-4.5918218	0.6158421
H	-6.3379349	-3.7352117	-0.6270599
H	-5.8133455	-2.8764653	0.8326614
