37
-0.000947568 (energy)
C	-2.6523307	-2.0648975	3.4193788
O	-2.9172400	-2.8619141	4.3166959
O	-3.5288401	-1.7799847	2.4066573
H	-3.0916685	-1.1066148	1.8208051
N	-1.2417676	-0.4565074	2.1226833
C	-0.0313559	-0.0498865	0.0569829
H	-0.0532153	1.0264567	0.1679268
H	0.4265649	-0.4324666	-0.8464121
C	-0.5570062	-0.9035800	0.9599217
C	-0.5142199	-2.4021941	0.7536209
H	-1.5140355	-2.8478835	0.8205430
H	-0.1069787	-2.6306120	-0.2333768
H	0.1185575	-2.9055490	1.4954223
C	-1.7861545	1.0414029	3.8927515
C	-1.2275314	0.9904070	2.4627543
C	-1.3272065	-1.2839900	3.3605061
C	-1.2410394	-0.2572475	4.5214262
H	-1.4656069	1.9385475	4.4293768
H	-2.8827409	1.0315729	3.8796387
H	-0.1971796	1.3774963	2.4259747
H	-1.8241324	1.5574337	1.7411749
H	-0.5177096	-2.0154835	3.4279648
H	-1.7987407	-0.5960984	5.3973153
H	-0.1928195	-0.1267437	4.8134443
O	1.6362836	4.5693590	1.9090803
H	3.1520574	3.7308369	2.9718517
C	2.6277347	3.8367497	2.0009485
C	3.2246185	3.0316690	0.8641137
C	2.4094045	3.1605409	-0.4291146
H	1.4080824	2.7351542	-0.2987485
H	2.9041946	2.6311531	-1.2503966
H	2.2840346	4.2093589	-0.7137137
C	3.4115466	1.5615601	1.3113420
H	4.2328766	3.4539683	0.7023646
H	3.9851220	1.4921922	2.2435420
H	3.9479908	0.9968601	0.5419701
H	2.4404074	1.0787760	1.4714364
