37
-0.000290919 (energy)
C	2.3297571	-0.0401962	0.9102981
O	3.4591029	0.3891179	1.1358147
O	1.9333466	-1.2972108	1.2815417
H	0.9857236	-1.4011505	1.0005148
N	0.0000000	0.0000000	0.0000000
C	-1.5368014	-0.9132063	-1.6437308
H	-2.4198297	-0.6385097	-1.0814997
H	-1.7016621	-1.4554625	-2.5662060
C	-0.2795216	-0.6360939	-1.2401769
C	0.9255157	-1.0534584	-2.0549940
H	1.6324346	-1.6423527	-1.4581542
H	0.6082103	-1.6633543	-2.9032445
H	1.4742750	-0.1919564	-2.4558932
C	-0.4298110	1.3977616	1.8800954
C	-1.1232323	0.5478463	0.8047520
C	1.2397522	0.7992635	0.2200565
C	0.7893647	1.9728863	1.1306174
H	-1.0870036	2.1753178	2.2789565
H	-0.1048148	0.7699079	2.7185151
H	-1.7761678	1.1674575	0.1702657
H	-1.7297404	-0.2653521	1.2158300
H	1.6640473	1.1738699	-0.7151239
H	1.5984587	2.3046134	1.7851067
H	0.4857573	2.8208215	0.5061983
O	4.1250891	6.9783364	4.3845225
H	4.2120503	7.4628999	2.4127698
C	3.9811222	6.7046111	3.1876601
C	3.4976399	5.3725016	2.6504938
C	3.2704228	4.3445010	3.7663829
H	4.2145243	4.1027275	4.2671952
H	2.8506224	3.4191556	3.3576332
H	2.5872180	4.7327295	4.5274633
C	4.4730021	4.8678466	1.5595458
H	2.5349309	5.5880596	2.1526887
H	4.6317781	5.6216292	0.7789055
H	4.0744267	3.9665797	1.0826316
H	5.4471270	4.6182369	1.9961207
