37
-0.00786827 (energy)
C	1.9165057	0.7468802	-1.5453942
O	1.9393160	0.7832999	-2.7737034
O	2.5017335	1.7121285	-0.7702471
H	2.3386184	1.4654850	0.1786098
N	1.4085531	-0.2037213	0.7121194
C	2.3213630	-1.1924161	2.7337068
H	1.4612040	-0.9350397	3.3380122
H	3.1412275	-1.6809514	3.2449181
C	2.4175453	-0.9151772	1.4167835
C	3.6480042	-1.2830833	0.6162518
H	4.0665784	-0.4130290	0.0961078
H	4.4174302	-1.6837386	1.2793079
H	3.4366586	-2.0471868	-0.1423795
C	-0.7946652	0.5778595	0.2558359
C	0.1191180	0.0907216	1.3904061
C	1.2024048	-0.3650268	-0.7561163
C	-0.3355421	-0.2738845	-0.9452525
H	-1.8536821	0.4415061	0.4913708
H	-0.6291769	1.6436606	0.0572107
H	-0.2807307	-0.8236315	1.8561260
H	0.2653718	0.8329289	2.1815237
H	1.5834470	-1.3202177	-1.1267047
H	-0.5944821	0.1512962	-1.9174684
H	-0.7687081	-1.2788164	-0.8856713
O	1.9244983	-2.8669384	-2.7919520
H	2.8147650	-2.0244539	-4.4130065
C	2.1401156	-2.8050183	-4.0076027
C	1.5453752	-3.7344232	-5.0465006
C	0.6853471	-4.8367338	-4.4149278
H	1.2987250	-5.4946344	-3.7892046
H	0.2089792	-5.4453949	-5.1909290
H	-0.0940121	-4.4116439	-3.7756850
C	2.6724288	-4.2951083	-5.9473655
H	0.9073779	-3.0946209	-5.6826580
H	3.2829136	-3.4923296	-6.3782392
H	2.2451529	-4.8742926	-6.7723337
H	3.3331658	-4.9565498	-5.3748762
