37
-0.00777871 (energy)
C	2.5540332	2.1627660	0.1940743
O	2.8009344	3.3321700	-0.0924990
O	3.1670720	1.1081596	-0.4280492
H	2.8098910	0.2768185	-0.0168770
N	1.3934701	0.2857723	1.3722144
C	-0.1516781	-1.5759154	1.1619964
H	0.2203550	-2.0819886	2.0433490
H	-0.9297114	-2.0839889	0.6063823
C	0.3183648	-0.3871816	0.7302890
C	-0.2249585	0.2752202	-0.5172119
H	0.5746487	0.5135861	-1.2289413
H	-0.9331371	-0.3909486	-1.0140890
H	-0.7536842	1.2104674	-0.2940428
C	2.8189243	0.8890836	3.1825540
C	1.9053698	-0.2333048	2.6675637
C	1.5592344	1.7661403	1.2996511
C	2.1018627	2.1657412	2.6979479
H	2.9393024	0.8575788	4.2688792
H	3.8157966	0.8131793	2.7317162
H	1.0684527	-0.4122091	3.3606573
H	2.4255174	-1.1847474	2.5181230
H	0.6179882	2.2796791	1.0869258
H	2.7479264	3.0445409	2.6401114
H	1.2608579	2.4030612	3.3593563
O	3.7718155	-1.4396555	-1.2040343
H	5.1140891	0.0639578	-1.4640754
C	4.7979308	-0.9699764	-1.7086338
C	5.7085776	-1.7026083	-2.6734090
C	5.2597184	-3.1504967	-2.9095570
H	5.3292549	-3.7325194	-1.9838090
H	5.8897985	-3.6302855	-3.6661113
H	4.2188005	-3.1914688	-3.2435402
C	7.1733858	-1.6010955	-2.1832995
H	5.6429676	-1.1417249	-3.6232452
H	7.4700787	-0.5598854	-2.0082210
H	7.8528438	-2.0248610	-2.9298591
H	7.3083076	-2.1563374	-1.2477117
