37
-0.00648215 (energy)
C	1.9165057	0.1732819	-1.7076435
O	1.9393160	-0.2126013	-2.8743330
O	2.5017335	1.3454345	-1.3093779
H	2.3386184	1.4381936	-0.3333871
N	1.4085531	0.0521238	0.7388501
C	2.3213630	-0.1855218	2.9766745
H	1.4612040	0.2630175	3.4565079
H	3.1412275	-0.4697503	3.6241448
C	2.4175453	-0.3754168	1.6443501
C	3.6480042	-0.9949334	1.0179276
H	4.0665784	-0.3552495	0.2315760
H	4.4174302	-1.1446476	1.7780287
H	3.4366586	-1.9724230	0.5663861
C	-0.7946652	0.6305113	0.0427675
C	0.1191180	0.5607973	1.2755257
C	1.2024048	-0.6016200	-0.5856704
C	-0.3355421	-0.5806626	-0.7945728
H	-1.8536821	0.5829388	0.3107335
H	-0.6291769	1.5641030	-0.5084046
H	-0.2807307	-0.1391280	2.0258865
H	0.2653718	1.5288222	1.7650833
H	1.5834470	-1.6259545	-0.6072150
H	-0.5944821	-0.5136409	-1.8535772
H	-0.7687081	-1.5046118	-0.3948778
O	0.5182210	-3.4431355	-1.5242020
H	1.1152947	-3.4330146	-3.4667708
C	0.4159442	-3.8180341	-2.6977105
C	-0.6194491	-4.7977857	-3.2123617
C	-1.5044764	-5.3511319	-2.0880148
H	-0.9087856	-5.9399755	-1.3816078
H	-2.2892421	-5.9959146	-2.4978572
H	-1.9758967	-4.5420456	-1.5224393
C	0.0803413	-5.9117371	-4.0281932
H	-1.2449872	-4.2212004	-3.9175817
H	0.7176073	-5.4952754	-4.8176545
H	-0.6646420	-6.5591397	-4.5019666
H	0.7058092	-6.5338940	-3.3773992
