37
-0.00647628 (energy)
C	1.0157634	-0.7509913	-2.2412728
O	0.4434607	-0.9636703	-3.3079628
O	2.2445767	-0.1506380	-2.1731356
H	2.4849369	-0.0822271	-1.2112023
N	1.3454919	-0.8159717	0.2376550
C	2.6316774	-1.7467571	2.0752949
H	2.3766614	-0.9467063	2.7580735
H	3.3096014	-2.5030997	2.4501901
C	2.1714476	-1.8219017	0.8092217
C	2.5678390	-2.9542136	-0.1132633
H	2.9918501	-2.5801189	-1.0529528
H	3.3182038	-3.5829773	0.3702586
H	1.7166767	-3.5967928	-0.3714441
C	-0.2440167	0.9579116	0.2317921
C	0.8133750	0.2668686	1.1058259
C	0.3979607	-1.1060672	-0.8769131
C	-0.8356487	-0.2114946	-0.5814335
H	-0.9956303	1.4810633	0.8292659
H	0.2253142	1.6914035	-0.4349076
H	0.3586067	-0.1636751	2.0117142
H	1.6216234	0.9340272	1.4216782
H	0.1127149	-2.1605974	-0.9158913
H	-1.3370566	0.0951946	-1.5020660
H	-1.5533487	-0.7726822	0.0277019
O	0.6345026	2.4612175	-2.5597830
H	1.8282970	2.2501471	-4.1908799
C	0.9320699	2.7144040	-3.7325924
C	0.1561330	3.6399231	-4.6481003
C	-1.1120665	4.1875240	-3.9806990
H	-1.8158005	3.3761445	-3.7638651
H	-1.6106022	4.9098584	-4.6358843
H	-0.8779005	4.6788940	-3.0317758
C	-0.1337653	2.9213301	-5.9881593
H	0.8418672	4.4777794	-4.8691189
H	0.7832301	2.5264134	-6.4419849
H	-0.5903656	3.6167426	-6.6998541
H	-0.8273035	2.0857605	-5.8376591
