37
-0.00429235 (energy)
C	-0.3627888	0.0616497	0.2626153
O	0.6357021	0.2577909	0.9519156
O	-0.2867704	-0.2793278	-1.0613954
H	-1.2181333	-0.3922470	-1.3893911
N	-2.8081250	-0.0534023	-0.2522832
C	-4.6573372	0.9333245	-1.4787984
H	-5.2590770	0.0344722	-1.4430913
H	-5.0735160	1.7710471	-2.0239566
C	-3.4386269	1.0381078	-0.9094434
C	-2.6282946	2.3131398	-0.9982684
H	-1.6279529	2.1283022	-1.4080247
H	-3.1332452	3.0306107	-1.6482260
H	-2.4975094	2.7910565	-0.0192212
C	-2.6980941	-2.1045739	0.9534622
C	-3.5785431	-1.3025384	-0.0166414
C	-1.7939619	0.1463905	0.8227930
C	-2.0608949	-1.0056514	1.8282315
H	-3.2771673	-2.8265177	1.5357484
H	-1.9248191	-2.6572591	0.4063285
H	-4.5536698	-1.0656426	0.4370370
H	-3.7663534	-1.8188560	-0.9633580
H	-1.8926817	1.1191899	1.3114999
H	-1.1438475	-1.3153783	2.3343200
H	-2.7727258	-0.6657160	2.5890281
O	4.9738883	-1.3326185	1.2924135
H	3.4059482	-1.0358600	0.0339735
C	3.7713888	-1.4020152	1.0143655
C	2.6977474	-1.9646248	1.9240814
C	3.2775965	-2.5239713	3.2296570
H	3.9303500	-3.3803704	3.0269540
H	2.4744807	-2.8535851	3.8974389
H	3.8781623	-1.7714492	3.7490457
C	1.8530970	-3.0046657	1.1488035
H	2.0331959	-1.1128924	2.1564756
H	1.4590336	-2.5893394	0.2133808
H	1.0037897	-3.3321465	1.7571003
H	2.4551161	-3.8873737	0.9034024
