37
-0.00406369 (energy)
C	2.6097160	1.6865432	1.2582770
O	3.1940226	1.8226282	2.3309638
O	1.9164419	2.7070010	0.6640669
H	1.5478458	2.3539243	-0.1887183
N	1.7661622	0.4652418	-0.7553928
C	-0.1822200	-0.4082082	-1.9123057
H	0.3067822	-0.4288788	-2.8775780
H	-1.2226682	-0.7069460	-1.8921898
C	0.4281338	-0.0144147	-0.7752945
C	-0.3023979	0.0104648	0.5498242
H	-0.2420742	0.9965962	1.0259067
H	-1.3569588	-0.2283993	0.3980686
H	0.1019172	-0.7211662	1.2606604
C	4.0157394	0.6853318	-1.5065230
C	2.5925100	0.3638744	-1.9867685
C	2.6249819	0.3704566	0.4602046
C	4.0463916	0.0764063	-0.0897855
H	4.7790738	0.2627594	-2.1655669
H	4.1728297	1.7698399	-1.4625307
H	2.5342686	-0.6558784	-2.3985061
H	2.2238028	1.0551209	-2.7512044
H	2.2991057	-0.4225465	1.1383414
H	4.8202558	0.4944355	0.5578395
H	4.1967858	-1.0077168	-0.1457268
O	2.5100615	-2.8690548	-3.0180444
H	0.8367081	-3.9542100	-2.6275326
C	1.7485057	-3.8165182	-3.2427163
C	1.9479113	-4.8566037	-4.3268188
C	3.1824234	-4.5660789	-5.1900663
H	3.0562539	-3.6276631	-5.7414758
H	3.3441249	-5.3718375	-5.9140679
H	4.0801475	-4.4641495	-4.5732719
C	0.6510415	-4.9920851	-5.1610543
H	2.0938243	-5.8132458	-3.7933124
H	-0.2207784	-5.1864593	-4.5247004
H	0.7422077	-5.8203755	-5.8711354
H	0.4597072	-4.0756393	-5.7314405
