37
-0.00383874 (energy)
C	4.5511460	-0.7382752	1.3163704
O	5.4712994	-1.1100188	2.0414323
O	4.5482472	0.4849548	0.7009445
H	3.7114484	0.5434121	0.1679162
N	2.3337597	-0.8841303	0.1674794
C	0.0694063	-0.0156934	0.0406864
H	-0.0834658	-0.3531533	-0.9761972
H	-0.7429437	0.5400124	0.4917517
C	1.2051549	-0.2329869	0.7358542
C	1.3772331	0.2711652	2.1523480
H	2.2815418	0.8828472	2.2563649
H	0.5193159	0.8840452	2.4361453
H	1.4512231	-0.5480937	2.8785592
C	3.4906358	-2.3511659	-1.3099096
C	2.2101660	-1.5137340	-1.1733174
C	3.3288020	-1.6188811	1.0007049
C	3.7382908	-2.8385428	0.1323130
H	3.3719821	-3.1738657	-2.0203124
H	4.3249103	-1.7279235	-1.6538940
H	1.3135549	-2.1521237	-1.2102340
H	2.1066797	-0.7461467	-1.9467702
H	2.9102541	-1.9453813	1.9562853
H	4.7690668	-3.1415844	0.3290333
H	3.0830026	-3.6857448	0.3645134
O	-0.0702024	-0.6926861	-3.2473306
H	-1.2379365	0.7751429	-4.0296656
C	-0.9816898	-0.3024377	-3.9855910
C	-1.8222699	-1.1935551	-4.8778652
C	-1.3676495	-2.6580067	-4.8296663
H	-0.3530701	-2.7610797	-5.2304153
H	-2.0380325	-3.2888874	-5.4230876
H	-1.3524152	-3.0328655	-3.8020563
C	-1.8421504	-0.6186605	-6.3149721
H	-2.8514431	-1.1187717	-4.4825252
H	-2.1570204	0.4318306	-6.3260503
H	-2.5384520	-1.1865087	-6.9405152
H	-0.8473434	-0.6815949	-6.7712838
