37
-0.00381731 (energy)
C	-2.6097160	0.4831621	-2.0479853
O	-3.1940225	-0.1021006	-2.9571848
O	-1.9164417	1.6468290	-2.2487317
H	-1.5478456	1.9245164	-1.3685070
N	-1.7661621	0.8419532	0.2796126
C	0.1822200	0.9165009	1.7273022
H	-0.3067822	1.5211316	2.4800305
H	1.2226682	0.6747243	1.9039176
C	-0.4281337	0.4873075	0.6031755
C	0.3023979	-0.3454037	-0.4279164
H	0.2420743	0.1039967	-1.4264899
H	1.3569588	-0.4308377	-0.1581259
H	-0.1019173	-1.3627822	-0.5021651
C	-4.0157393	1.4933692	0.7135405
C	-2.5925099	1.5558144	1.2880588
C	-2.6249819	-0.0120276	-0.5906622
C	-4.0463916	0.1162438	0.0196665
H	-4.7790738	1.5932853	1.4900218
H	-4.1728296	2.2958728	-0.0172680
H	-2.5342686	1.0392983	2.2589526
H	-2.2238027	2.5767098	1.4293259
H	-2.2991058	-1.0554011	-0.6004124
H	-4.8202557	0.0201874	-0.7451470
H	-4.1967858	-0.6782842	0.7593810
O	3.5534593	-0.0958244	0.4351073
H	4.0884890	0.5009249	-1.4324597
C	4.3939158	0.0771585	-0.4547474
C	5.8692767	-0.2480925	-0.3349952
C	6.2399434	-0.7567229	1.0641197
H	6.0778473	0.0247182	1.8148991
H	7.2933802	-1.0544409	1.0988701
H	5.6239373	-1.6150217	1.3480092
C	6.7081104	0.9783238	-0.7690878
H	6.0549760	-1.0482491	-1.0741494
H	6.4189781	1.3339299	-1.7654534
H	7.7713040	0.7188168	-0.7985356
H	6.5801921	1.8054887	-0.0610926
