37
-0.00350688 (energy)
C	-0.3627888	0.2479202	-0.1063158
O	0.6357021	0.8926889	-0.4191729
O	-0.2867704	-0.9967657	0.4593935
H	-1.2181333	-1.3001702	0.6275530
N	-2.8081250	-0.2391772	0.0963995
C	-4.6573372	-1.6184022	-0.6623546
H	-5.2590770	-1.4271536	0.2166417
H	-5.0735160	-2.3007472	-1.3926846
C	-3.4386269	-1.0758924	-0.8644134
C	-2.6282946	-1.3847749	-2.1046505
H	-1.6279529	-1.7562094	-1.8514676
H	-3.1332452	-2.1494457	-2.6983576
H	-2.4975094	-0.5035910	-2.7453163
C	-2.6980941	1.3044323	1.9070338
C	-3.5785431	0.2097948	1.2856397
C	-1.7939619	0.7848725	-0.2870430
C	-2.0608949	1.9750861	0.6729043
H	-3.2771673	2.0032365	2.5168967
H	-1.9248191	0.8615835	2.5463312
H	-4.5536698	0.6154443	0.9735624
H	-3.7663534	-0.6328815	1.9585089
H	-1.8926817	1.0972300	-1.3299264
H	-1.1438475	2.5272695	0.8900444
H	-2.7727258	2.6652953	0.2060223
O	1.8367235	-0.8929077	4.3207857
H	2.4064964	-2.6442406	3.4615040
C	2.4698477	-1.5376584	3.4772325
C	3.3656372	-0.9362404	2.4129600
C	3.3491090	0.5975994	2.4391058
H	2.3512849	0.9775741	2.1930133
H	4.0608613	1.0026618	1.7118469
H	3.6077619	0.9781763	3.4315741
C	2.9885239	-1.5166413	1.0283677
H	4.3842261	-1.2933181	2.6497212
H	2.9936068	-2.6133336	1.0345084
H	3.7020529	-1.1798913	0.2693765
H	1.9891445	-1.1816694	0.7269435
