37
-0.0033866 (energy)
C	-0.3627888	0.0616497	0.2626153
O	0.6357020	0.2577910	0.9519156
O	-0.2867703	-0.2793278	-1.0613955
H	-1.2181332	-0.3922470	-1.3893912
N	-2.8081249	-0.0534025	-0.2522834
C	-4.6573372	0.9333241	-1.4787988
H	-5.2590769	0.0344718	-1.4430918
H	-5.0735159	1.7710467	-2.0239570
C	-3.4386269	1.0381075	-0.9094437
C	-2.6282947	2.3131396	-0.9982686
H	-1.6279529	2.1283020	-1.4080249
H	-3.1332453	3.0306105	-1.6482262
H	-2.4975096	2.7910563	-0.0192214
C	-2.6980940	-2.1045741	0.9534620
C	-3.5785430	-1.3025387	-0.0166417
C	-1.7939620	0.1463904	0.8227929
C	-2.0608950	-1.0056515	1.8282314
H	-3.2771672	-2.8265179	1.5357481
H	-1.9248190	-2.6572593	0.4063283
H	-4.5536697	-1.0656429	0.4370367
H	-3.7663532	-1.8188563	-0.9633583
H	-1.8926819	1.1191897	1.3114997
H	-1.1438476	-1.3153783	2.3343200
H	-2.7727260	-0.6657162	2.5890279
O	3.2309887	3.4666574	3.5201272
H	4.0400294	1.8143650	4.3835829
C	3.8027838	2.3725664	3.4557303
C	4.2311654	1.6873946	2.1736042
C	3.8058195	2.4721591	0.9258676
H	2.7135660	2.5173025	0.8514402
H	4.1932467	1.9940728	0.0198288
H	4.1733536	3.5018551	0.9629922
C	3.7166299	0.2274630	2.1682854
H	5.3344604	1.6440868	2.2177455
H	4.0201892	-0.3116790	3.0738101
H	4.1169186	-0.3121014	1.3038603
H	2.6223573	0.2025014	2.1069144
