37
-0.00946427 (energy)
C	1.1501068	-1.7883330	1.7962635
O	2.2011304	-1.7618742	2.4301553
O	0.0365510	-2.4465705	2.2598217
H	-0.6748359	-2.3861708	1.5756763
N	-0.2055906	-1.5476933	-0.2992179
C	-1.1309375	-3.1424028	-1.8775693
H	-2.0230912	-2.5568221	-2.0596545
H	-1.0584204	-4.0871724	-2.4008850
C	-0.1538021	-2.7681117	-1.0231564
C	1.0405795	-3.6604838	-0.7619112
H	1.0829621	-3.9938657	0.2817856
H	0.9777582	-4.5508482	-1.3905288
H	1.9897210	-3.1588980	-0.9860622
C	-0.3251887	0.8434141	-0.4174154
C	-1.0867312	-0.4463767	-0.7762237
C	0.9394467	-1.0286796	0.4850494
C	0.5358611	0.4406773	0.7934421
H	0.3167793	1.1440583	-1.2539632
H	-0.9963880	1.6779547	-0.1949613
H	-1.2442975	-0.5430015	-1.8560157
H	-2.0695250	-0.4935931	-0.2892151
H	1.8840464	-1.0571575	-0.0703627
H	-0.0606418	0.4744770	1.7132679
H	1.4152776	1.0710488	0.9409268
O	3.8554499	0.0672069	-0.4196158
H	4.3904795	-0.6229571	1.4154836
C	4.6959064	-0.1504277	0.4603841
C	6.1712673	0.1804481	0.3571853
C	6.5419340	0.7589832	-1.0145014
H	6.3798380	0.0163950	-1.8037306
H	7.5953708	1.0580747	-1.0341949
H	5.9259280	1.6305055	-1.2547492
C	7.0101010	-1.0662975	0.7288825
H	6.3569666	0.9423142	1.1357478
H	6.7209687	-1.4716938	1.7060487
H	8.0732946	-0.8086055	0.7713788
H	6.8821827	-1.8567087	-0.0199226
