37
-0.00552374 (energy)
C	2.3160169	-0.8340149	0.4768119
O	3.4440178	-0.7251577	0.9489704
O	2.0205401	-1.7563479	-0.4979519
H	1.0769781	-1.6390645	-0.7694475
N	0.0000000	0.0000000	0.0000000
C	-1.0556527	0.9541110	-1.9661710
H	-2.0121765	0.4862864	-1.7707224
H	-0.9870305	1.5562956	-2.8630390
C	0.0297435	0.7914138	-1.1785455
C	1.3586009	1.4202862	-1.5387980
H	2.1304390	0.6658280	-1.7319339
H	1.2476205	2.0185025	-2.4452615
H	1.7335721	2.0795157	-0.7466398
C	-0.9914163	-0.3393150	2.1558358
C	-1.3051536	-0.3051521	0.6483039
C	1.1139292	-0.0303343	0.9766280
C	0.4948862	-0.7356089	2.2161320
H	-1.1344517	0.6571033	2.5905927
H	-1.6333059	-1.0369401	2.7015000
H	-2.0315801	0.4756951	0.3979116
H	-1.7055519	-1.2621623	0.2889947
H	1.4722502	0.9701458	1.2453430
H	0.6038512	-1.8223501	2.1153453
H	0.9971790	-0.4323953	3.1371406
O	2.7276673	2.7692342	1.9334295
H	4.5599230	3.4719842	1.4050791
C	3.6925726	3.5252299	2.0933036
C	3.8119532	4.5660930	3.1883703
C	2.5496515	4.6423864	4.0569293
H	1.6918235	4.9776714	3.4633720
H	2.6930153	5.3467516	4.8833004
H	2.2964243	3.6624337	4.4720224
C	4.1962491	5.9310225	2.5675165
H	4.6638429	4.2402541	3.8122267
H	5.0926673	5.8521851	1.9406061
H	4.3992257	6.6623574	3.3565294
H	3.3792861	6.3185310	1.9476531
