37
-0.00445348 (energy)
C	-0.2735706	-0.0177096	0.3657894
O	0.8874720	-0.0395204	0.7641286
O	-0.5835570	0.0461262	-0.9713727
H	-1.5659923	0.1060268	-1.0662789
N	-2.7369953	0.3372859	0.6697324
C	-4.2420789	2.1530838	0.0968800
H	-5.0687531	1.4935002	-0.1345444
H	-4.4185636	3.2128954	-0.0348780
C	-3.0277666	1.7162579	0.4963016
C	-1.8909905	2.6845607	0.7437979
H	-1.0560471	2.5223101	0.0518534
H	-2.2433623	3.7080285	0.6016603
H	-1.4939004	2.6058861	1.7630286
C	-3.2877106	-1.6929266	1.8189143
C	-3.8519656	-0.6317934	0.8556577
C	-1.4834436	-0.1480488	1.2931255
C	-1.7694641	-1.6512613	1.5679735
H	-3.5069016	-1.4115327	2.8557822
H	-3.7138323	-2.6852214	1.6450652
H	-4.7213298	-0.1155964	1.2773931
H	-4.1552923	-1.0674104	-0.1053423
H	-1.2429993	0.3724146	2.2273987
H	-1.5134143	-2.2439923	0.6813246
H	-1.1720545	-2.0225260	2.4032924
O	2.2800316	3.1144864	0.0003445
H	2.4160082	1.5825156	1.3287829
C	2.9140063	2.2193075	0.5703116
C	4.3727642	1.8914357	0.3226345
C	4.9809740	2.7546541	-0.7902698
H	4.4947696	2.5467796	-1.7499513
H	6.0516751	2.5492496	-0.8950589
H	4.8476636	3.8200487	-0.5807554
C	4.5258496	0.3742550	0.0563583
H	4.8889307	2.1089924	1.2751705
H	4.0735929	-0.2244396	0.8562496
H	5.5853116	0.1060354	-0.0083729
H	4.0471051	0.0966955	-0.8899961
