37
-0.00423689 (energy)
C	2.6402611	-1.1247224	1.2255822
O	2.8818043	-2.2748027	1.5807468
O	2.4965384	-0.0988207	2.1283771
H	2.2557879	0.7245393	1.6365519
N	1.8450778	0.5868458	-0.4252002
C	-0.2259730	1.8280348	-0.6716902
H	0.2665402	2.7229465	-1.0302452
H	-1.3023784	1.8776557	-0.5687505
C	0.4332668	0.7009254	-0.3253721
C	-0.3055210	-0.4975501	0.2304818
H	-0.0054222	-0.7226686	1.2607755
H	-1.3786474	-0.2969783	0.2356056
H	-0.1369784	-1.4019077	-0.3665377
C	3.7602727	0.6640174	-1.8645550
C	2.5964503	1.5118338	-1.3177685
C	2.5632339	-0.6960839	-0.2410702
C	3.9932139	-0.3944673	-0.7713358
H	3.4622151	0.1794324	-2.8019242
H	4.6542936	1.2608897	-2.0668476
H	1.9372770	1.8679406	-2.1170136
H	2.9516380	2.3890672	-0.7613571
H	2.1126387	-1.5212309	-0.8046823
H	4.6067476	0.0214287	0.0371471
H	4.4827524	-1.3020743	-1.1306336
O	1.7061516	3.6177594	-3.5859759
H	-0.2549856	3.2639318	-3.9846233
C	0.6847383	3.7820189	-4.2626333
C	0.5861785	4.6629607	-5.4918795
C	1.8953655	5.4101388	-5.7771433
H	2.1256349	6.1098473	-4.9659841
H	1.8189156	5.9780813	-6.7105078
H	2.7366503	4.7155397	-5.8577991
C	-0.6285676	5.6124652	-5.3540085
H	0.3693862	3.9757148	-6.3296014
H	-1.5510740	5.0602374	-5.1376205
H	-0.7797150	6.1715448	-6.2830812
H	-0.4658061	6.3350482	-4.5457979
