37
-0.00422012 (energy)
C	3.6485792	0.9092084	-2.6670513
O	4.1314737	1.0176196	-3.7905412
O	4.0402802	-0.0809696	-1.7985543
H	3.4926318	-0.0172238	-0.9777058
N	1.8866127	1.3456918	-0.9373632
C	0.0483720	0.0252140	-0.0611393
H	0.1483269	0.4168458	0.9431672
H	-0.7242840	-0.7170649	-0.2151921
C	0.8479908	0.3891540	-1.0873296
C	0.7003208	-0.2415182	-2.4553832
H	1.5948931	-0.8050489	-2.7459279
H	-0.1407964	-0.9374668	-2.4496504
H	0.5124700	0.5039914	-3.2374503
C	2.4610897	3.5977294	-0.3508719
C	1.8495305	2.2985069	0.2061445
C	2.6397206	1.9017846	-2.0859057
C	3.3956195	3.1151977	-1.4749701
H	1.6711874	4.2359560	-0.7644457
H	2.9892377	4.1737363	0.4144568
H	0.8136940	2.4399403	0.5334879
H	2.4194678	1.9074836	1.0591173
H	1.9880332	2.2298246	-2.9039861
H	4.3533114	2.7814129	-1.0572961
H	3.6062303	3.8734859	-2.2320272
O	6.8244069	-0.4616362	0.9714869
H	6.1657287	-0.2183206	-0.9356349
C	7.0137218	-0.2007476	-0.2219236
C	8.3532010	0.1574926	-0.8337061
C	9.4678559	0.2403566	0.2171504
H	9.2722626	1.0538507	0.9246570
H	10.4353060	0.4256048	-0.2616983
H	9.5349083	-0.6859836	0.7951913
C	8.2138807	1.4564625	-1.6640328
H	8.5808851	-0.6594509	-1.5421177
H	7.4040547	1.3812976	-2.3997838
H	9.1433929	1.6619185	-2.2047607
H	8.0042676	2.3125003	-1.0120485
