37
-0.00419657 (energy)
C	0.2850375	0.1417490	-0.3280507
O	0.8479337	0.2984845	0.7516490
O	-0.9847216	-0.3755736	-0.4189263
H	-1.2229715	-0.4643216	-1.3745074
N	0.2581131	-0.0878834	-2.8247302
C	0.0782355	-1.9901025	-4.3213147
H	-0.5016425	-1.4494485	-5.0584935
H	0.2826284	-3.0310635	-4.5365618
C	0.5115966	-1.4430100	-3.1646830
C	1.2641806	-2.2682681	-2.1430710
H	0.7141803	-2.3524614	-1.1982674
H	1.4161841	-3.2786273	-2.5276810
H	2.2498481	-1.8457407	-1.9136550
C	0.5421299	2.2129356	-3.4340212
C	-0.0898504	0.8863433	-3.8955454
C	0.8892160	0.5813953	-1.6631210
C	0.5875798	2.0879565	-1.9003674
H	1.5583827	2.3031416	-3.8357864
H	-0.0269770	3.0859278	-3.7663677
H	0.3233347	0.5455188	-4.8511766
H	-1.1785742	0.9670080	-4.0115801
H	1.9708653	0.4118599	-1.6096914
H	-0.3881233	2.3416896	-1.4683248
H	1.3392858	2.7225271	-1.4262879
O	-2.2604275	-0.3929187	3.7749692
H	-1.5089534	1.4278292	3.2746330
C	-1.3227601	0.4038100	3.6560796
C	0.1234259	0.1045473	3.9963830
C	0.3016636	-1.2986468	4.5904359
H	-0.2202171	-1.3810696	5.5503537
H	1.3625924	-1.5148020	4.7556011
H	-0.1123997	-2.0635765	3.9269846
C	0.6823874	1.2195009	4.9132340
H	0.6698976	0.1660963	3.0379133
H	0.5335538	2.2145677	4.4767846
H	1.7563630	1.0771895	5.0710805
H	0.1898609	1.1991742	5.8924308
