37
-0.00511817 (energy)
C	0.1405258	0.4274104	-0.1978908
O	-0.9984076	0.5129076	0.2710730
O	0.8698811	-0.7429487	-0.1436230
H	0.3665916	-1.4381851	0.3335276
C	3.5322779	1.9883476	1.7640334
H	4.3691539	1.4365172	1.3542467
H	3.6508534	2.3789091	2.7668868
C	2.3837126	2.2002056	1.0824379
C	1.2203979	2.9451368	1.7051075
H	0.3133327	2.3326973	1.7680588
H	1.4800647	3.2610074	2.7177608
H	0.9688184	3.8403935	1.1217094
C	2.7681242	1.4690955	-2.5052062
C	3.3154756	1.3026354	-1.0786004
N	2.2140647	1.8120574	-0.2538904
C	0.9075506	1.5549528	-0.8781180
C	1.2527340	1.1875895	-2.3595009
H	2.9348284	2.4971533	-2.8451561
H	3.2441161	0.7927392	-3.2214258
H	4.2138211	1.9004932	-0.8952387
H	3.5501819	0.2504555	-0.8523299
H	0.2603211	2.4344473	-0.8163927
H	1.0465866	0.1285525	-2.5380110
H	0.6478071	1.7702154	-3.0592869
O	-1.2415051	-1.4288697	1.9750256
H	-0.8704330	-0.4257202	3.7030793
C	-1.6162047	-0.8328512	2.9911426
C	-3.0619167	-0.5927210	3.3772418
C	-4.0402157	-1.1106678	2.3150350
H	-3.9199868	-0.5579274	1.3766224
H	-5.0748519	-0.9922946	2.6542819
H	-3.8621281	-2.1676649	2.0964593
C	-3.2698182	0.9059471	3.7042683
H	-3.2128827	-1.1553301	4.3162647
H	-2.5529569	1.2592795	4.4553100
H	-4.2785948	1.0717784	4.0960099
H	-3.1505215	1.5192863	2.8034879
