37
-0.00454947 (energy)
C	0.0236641	0.0493744	0.4884569
O	1.0948566	0.3649707	-0.0381851
O	-1.0591340	-0.3795217	-0.2519763
H	-0.8487075	-0.3569578	-1.2109018
C	-2.7543001	2.9009988	1.8815856
H	-3.7022383	2.3778354	1.9043115
H	-2.7937347	3.9743052	1.7445762
C	-1.5631620	2.2755474	2.0181850
C	-0.2560742	3.0382772	1.9426505
H	0.3862651	2.6931343	1.1240610
H	-0.4538310	4.1007821	1.7856677
H	0.3165260	2.9309640	2.8731037
C	-1.9575718	-1.1500297	3.3078929
C	-2.6127095	0.0747359	2.6496754
N	-1.4551167	0.9074322	2.3041912
C	-0.2769205	0.0884365	1.9819464
C	-0.6370424	-1.3356252	2.5213564
H	-1.7477578	-0.9330058	4.3610490
H	-2.5901338	-2.0416182	3.2639410
H	-3.2663952	0.6260598	3.3329156
H	-3.2010993	-0.2057594	1.7617072
H	0.6238454	0.4882840	2.4562560
H	-0.7894346	-2.0229800	1.6845517
H	0.1692065	-1.7354489	3.1419961
O	2.4056552	-2.1924501	2.8767518
H	3.7352582	-3.6851685	3.2429760
C	3.4973544	-2.7461021	2.7041431
C	4.5933676	-2.2441547	1.7856539
C	4.1729136	-0.9873246	1.0128552
H	3.3400886	-1.2100549	0.3365500
H	5.0080708	-0.6048549	0.4163637
H	3.8387799	-0.1988406	1.6935763
C	5.0584063	-3.3918578	0.8568418
H	5.4422460	-1.9968660	2.4484793
H	5.3418904	-4.2844213	1.4275998
H	5.9272231	-3.0760551	0.2703115
H	4.2612616	-3.6722817	0.1584545
