37
-0.00364496 (energy)
C	-0.3240216	-0.3628693	-0.0701703
O	-0.8958816	0.7284770	0.0094895
O	1.0469796	-0.4816177	0.0342298
H	1.4600357	0.4027874	0.1416488
C	0.3356220	-2.3232136	-3.7459796
H	1.1630735	-2.9960567	-3.5578050
H	0.2126251	-1.9755686	-4.7639816
C	-0.5218486	-1.9206095	-2.7809342
C	-1.6451949	-0.9476851	-3.0766573
H	-1.5669303	-0.0236646	-2.4919582
H	-1.6324710	-0.6749303	-4.1340649
H	-2.6222545	-1.3941730	-2.8505308
C	-0.2456256	-3.9969573	0.2466002
C	0.3845571	-3.5412039	-1.0791694
N	-0.4765953	-2.4200488	-1.4718410
C	-1.0044497	-1.7071567	-0.2988547
C	-0.7413214	-2.6821106	0.8964826
H	-1.0901945	-4.6640784	0.0418768
H	0.4615055	-4.5307770	0.8884715
H	0.3514104	-4.3139263	-1.8536896
H	1.4333088	-3.2314725	-0.9466768
H	-2.0688752	-1.4853849	-0.4173550
H	0.0319793	-2.2691620	1.5502421
H	-1.6459246	-2.8234767	1.4938087
O	3.4961589	-0.0627859	1.6006524
H	3.9402860	-1.5192032	0.2546313
C	3.5461735	-1.2485201	1.2547267
C	3.1011559	-2.4231131	2.1027297
C	2.6402070	-1.9887452	3.5000385
H	3.4729854	-1.5537742	4.0638430
H	2.2545213	-2.8461145	4.0619433
H	1.8556026	-1.2289318	3.4382890
C	4.2242942	-3.4874919	2.1455483
H	2.2483531	-2.8706245	1.5609319
H	4.5481642	-3.7745146	1.1378164
H	3.8722287	-4.3893238	2.6567635
H	5.0972266	-3.1080203	2.6894346
