37
-0.00317327 (energy)
C	0.4727658	0.1336812	-0.0144841
O	0.2777136	-0.6980412	0.8769186
O	-0.5449318	0.5891124	-0.8278221
H	-1.3881971	0.1370598	-0.6067371
C	2.2400976	-0.8652635	-3.7115507
H	1.9203067	-0.0860649	-4.3922758
H	2.4679746	-1.8296127	-4.1479176
C	2.3626808	-0.6753591	-2.3782959
C	2.7766592	-1.8021237	-1.4536531
H	2.0144115	-2.0294957	-0.6992708
H	2.9549219	-2.7113615	-2.0317333
H	3.7010013	-1.5514390	-0.9171094
C	2.3338923	2.8992467	-1.4980409
C	2.0235341	1.8150144	-2.5423707
N	2.1853033	0.5764168	-1.7726500
C	1.8158268	0.7645752	-0.3616838
C	1.7728128	2.3178914	-0.1773975
H	3.4180331	3.0386017	-1.4240277
H	1.8830666	3.8649116	-1.7455162
H	2.7280036	1.8172798	-3.3801043
H	1.0051431	1.9202396	-2.9487884
H	2.5458554	0.2951347	0.3038314
H	0.7404397	2.6465625	-0.0287272
H	2.3524965	2.6253663	0.6969686
O	-5.4445818	-3.0602415	-1.4179335
H	-4.6356723	-4.8614168	-0.9366792
C	-4.5942730	-3.7568923	-0.8524387
C	-3.4474781	-3.2248619	-0.0166018
C	-3.4010741	-1.6914668	-0.0036590
H	-3.2011386	-1.3023936	-1.0082699
H	-2.6113590	-1.3359167	0.6667937
H	-4.3556577	-1.2705350	0.3254610
C	-2.1191460	-3.8611532	-0.4928816
H	-3.6356912	-3.5919423	1.0085380
H	-2.1775098	-4.9562261	-0.5072495
H	-1.3009609	-3.5753444	0.1760565
H	-1.8663112	-3.5195732	-1.5034358
