37
-0.00285424 (energy)
C	1.6064376	-2.6906864	1.1533023
O	1.2340613	-3.8121910	0.7955740
O	1.4821327	-2.2583621	2.4580202
H	1.0424146	-2.9446842	3.0056848
C	-0.6161705	0.8052124	0.3606115
H	-0.2817070	1.5213079	1.1009796
H	-1.6220654	0.9317400	-0.0194931
C	0.1598891	-0.2060202	-0.0908291
C	-0.3580793	-1.2107312	-1.0998908
H	-0.3509242	-2.2369106	-0.7142525
H	-1.3860450	-0.9654300	-1.3751755
H	0.2516677	-1.2018072	-2.0127211
C	3.6971255	0.2795045	0.8067838
C	2.2287677	0.6597049	1.0555402
N	1.5023498	-0.3553173	0.2843007
C	2.2303531	-1.6326815	0.2512254
C	3.6749413	-1.2665384	0.7284118
H	4.0307771	0.7056314	-0.1457662
H	4.3657709	0.6409201	1.5937328
H	1.9767516	1.6547060	0.6753549
H	1.9749832	0.6261821	2.1269120
H	2.2298171	-2.0617499	-0.7548197
H	3.8609556	-1.6973483	1.7161990
H	4.4272730	-1.6634199	0.0417007
O	4.6826171	0.7040407	-2.3500166
H	3.4162049	1.0929688	-3.8911550
C	4.4419854	0.8411709	-3.5547669
C	5.4585433	0.6921146	-4.6688633
C	6.8706315	0.4211352	-4.1338882
H	7.2348754	1.2764121	-3.5538685
H	7.5675995	0.2432704	-4.9598254
H	6.8816225	-0.4502542	-3.4726066
C	5.3960550	1.9290048	-5.5975038
H	5.1205722	-0.1775306	-5.2609583
H	4.3768215	2.1128255	-5.9582955
H	6.0413734	1.7810353	-6.4694332
H	5.7386280	2.8270676	-5.0702951
