37
-0.00278237 (energy)
C	-0.7260495	1.1197867	1.9281421
O	-0.7950185	1.1700251	3.1598586
O	-1.3553548	2.0448917	1.1201815
H	-1.8617264	2.6865223	1.6644466
C	-2.9819728	-1.6057404	-0.3679342
H	-3.0270799	-1.1659787	-1.3565587
H	-3.7990127	-2.2586279	-0.0877610
C	-1.9682060	-1.3745646	0.4966427
C	-1.9604531	-1.9787549	1.8861875
H	-1.9499982	-1.2185156	2.6759591
H	-2.8505996	-2.5951566	2.0288626
H	-1.0774504	-2.6139967	2.0341883
C	0.9326668	0.1558997	-1.1755118
C	-0.5670706	-0.1776872	-1.2203912
N	-0.8342739	-0.6263864	0.1507524
C	0.0247345	0.0658521	1.1231991
C	1.1481478	0.7181239	0.2507963
H	1.5172198	-0.7597163	-1.3176533
H	1.2290349	0.8718499	-1.9478964
H	-0.8022697	-0.9860020	-1.9199543
H	-1.1720588	0.7012217	-1.4940265
H	0.4335260	-0.6339262	1.8576557
H	1.0337813	1.8057082	0.2491744
H	2.1391615	0.4851171	0.6491551
O	3.0692163	-2.3968475	-0.8840047
H	1.8136178	-3.2167580	0.4876337
C	2.5912584	-3.3684618	-0.2876378
C	2.9818468	-4.8137378	-0.5230873
C	4.0025148	-4.9616461	-1.6588607
H	3.5673641	-4.6446549	-2.6131958
H	4.3221552	-6.0047299	-1.7557062
H	4.8848477	-4.3401935	-1.4799228
C	1.7088497	-5.6657976	-0.7459049
H	3.4394539	-5.1527310	0.4238885
H	0.9873258	-5.5359387	0.0697773
H	1.9687539	-6.7278766	-0.8009480
H	1.2160478	-5.3879356	-1.6849262
