37
-0.00194575 (energy)
C	2.0249265	-0.5688735	1.0367534
O	3.2499068	-0.4338508	1.1115749
O	1.3385184	-1.4780151	1.8158235
H	1.9624455	-1.9874609	2.3775233
C	0.1554695	-2.6761421	-2.1023873
H	-0.8103028	-2.9653175	-1.7068309
H	0.5732637	-3.3072601	-2.8766298
C	0.8308728	-1.5852359	-1.6752892
C	2.1979611	-1.2351742	-2.2270749
H	2.9739188	-1.2219898	-1.4527830
H	2.4930408	-1.9670436	-2.9820339
H	2.1903815	-0.2431792	-2.6972009
C	-1.3196090	0.6764475	0.2775806
C	-1.1033800	-0.7278155	-0.3087616
N	0.2933322	-0.6745665	-0.7549936
C	1.1018401	0.2046319	0.1029500
C	0.0476125	1.0317148	0.9111212
H	-1.5610976	1.3780613	-0.5284468
H	-2.1317230	0.7074701	1.0100456
H	-1.7514733	-0.9351925	-1.1661122
H	-1.2678030	-1.5139763	0.4450845
H	1.7541527	0.8482115	-0.4941431
H	0.0658748	0.7316625	1.9625759
H	0.2678316	2.1014304	0.8631394
O	7.8541226	-4.5721751	-1.1331194
H	8.3960441	-3.3395887	0.3891238
C	7.6026532	-3.6960375	-0.2980879
C	6.2538508	-3.0302729	-0.1128639
C	5.2230596	-3.5105455	-1.1426353
H	5.5254140	-3.2221187	-2.1555455
H	4.2409940	-3.0709091	-0.9380878
H	5.1287951	-4.6003305	-1.1279301
C	6.4297437	-1.4923402	-0.1125973
H	5.9192539	-3.3203439	0.8995527
H	7.1794598	-1.1711058	0.6205682
H	5.4826390	-1.0027968	0.1362639
H	6.7453205	-1.1382501	-1.1009563
