37
-0.00180409 (energy)
C	-0.2877661	-0.2432743	0.3155887
O	0.7815360	0.0705457	0.8471112
O	-0.5757079	0.0747502	-0.9961257
H	0.1597404	0.5906732	-1.3926933
C	-3.8842108	1.8392300	1.0355998
H	-4.5090850	1.6196474	0.1787923
H	-4.0676251	2.7772398	1.5443337
C	-2.9167520	1.0035889	1.4764922
C	-2.0375234	1.3642625	2.6566670
H	-0.9751379	1.4138340	2.3907877
H	-2.3277805	2.3398455	3.0524655
H	-2.1373087	0.6251136	3.4621681
C	-3.2447998	-2.3596286	0.0154523
C	-3.6183463	-0.8702537	-0.0533381
N	-2.7059637	-0.2679795	0.9252257
C	-1.4287165	-0.9938978	0.9917427
C	-1.7173271	-2.3507609	0.2677059
H	-3.7679151	-2.8313328	0.8545616
H	-3.5068100	-2.9030123	-0.8972806
H	-4.6529977	-0.6769205	0.2469930
H	-3.4710601	-0.4594397	-1.0647265
H	-1.1130887	-1.1439002	2.0281331
H	-1.1775048	-2.3876468	-0.6826379
H	-1.3866854	-3.1975091	0.8749813
O	3.8896843	4.3488552	-2.0902695
H	3.3056095	3.0143684	-3.5073702
C	3.4409635	3.2490004	-2.4324693
C	3.0391164	2.1381881	-1.4830309
C	3.3228980	2.4954073	-0.0182839
H	4.3993663	2.6124547	0.1493797
H	2.9541406	1.7084298	0.6482422
H	2.8449575	3.4400679	0.2572571
C	3.7121802	0.8140603	-1.9187441
H	1.9502357	2.0117189	-1.6224157
H	3.5079428	0.5837831	-2.9713869
H	3.3391999	-0.0178230	-1.3125695
H	4.7989871	0.8699099	-1.7862544
