37
-0.00176368 (energy)
C	3.8624636	1.1820915	-1.2139559
O	4.5661240	1.9456253	-0.5459108
O	3.1842486	1.6056267	-2.3388057
H	3.3255868	2.5667688	-2.4821790
C	0.0000000	-0.0000000	0.0000000
H	-0.4969893	-0.3055096	-0.9123974
H	-0.6318703	0.3654631	0.7996811
C	1.3405666	-0.0625249	0.1662242
C	2.0019155	0.4103879	1.4448610
H	2.7096038	1.2301707	1.2747267
H	1.2439896	0.7648070	2.1467180
H	2.5579612	-0.4051835	1.9252635
C	2.9434652	-2.1372665	-2.4182774
C	1.7041883	-1.3461562	-1.9701211
N	2.1964735	-0.6249863	-0.7909975
C	3.6236915	-0.2934246	-0.9169242
C	4.1270401	-1.1934480	-2.0938698
H	3.0204900	-3.0612314	-1.8346550
H	2.9117996	-2.4063004	-3.4782842
H	0.8695887	-1.9918849	-1.6793324
H	1.3513254	-0.6611734	-2.7573023
H	4.1608679	-0.5003135	0.0130571
H	4.3637088	-0.5724256	-2.9623403
H	5.0329676	-1.7367697	-1.8124680
O	-1.0566333	-2.4062819	-2.8593864
H	-2.0829852	-0.8133329	-3.5937487
C	-1.8911007	-1.9047608	-3.6211424
C	-2.7158455	-2.6707149	-4.6359966
C	-2.3483040	-4.1595990	-4.6779314
H	-1.3155762	-4.2932649	-5.0188156
H	-3.0098468	-4.7002240	-5.3632477
H	-2.4258379	-4.6133155	-3.6855287
C	-2.6031630	-1.9858739	-6.0196406
H	-3.7643128	-2.5638852	-4.3037504
H	-2.8572545	-0.9203696	-5.9654595
H	-3.2847532	-2.4596931	-6.7334486
H	-1.5840046	-2.0740731	-6.4137968
