37
-0.00174615 (energy)
C	2.0445019	1.0680738	-1.1131505
O	3.1996543	0.6461445	-1.0035848
O	1.7601459	2.4166651	-1.1844796
H	2.5839036	2.9450143	-1.1032587
C	-0.6356288	1.2336509	2.1394082
H	-1.3689574	1.9791496	1.8578695
H	-0.4694175	1.0903157	3.1996639
C	0.0529028	0.4986388	1.2370001
C	1.0988649	-0.5084822	1.6701415
H	2.0957003	-0.2755781	1.2778569
H	1.1662656	-0.5295689	2.7599490
H	0.8405170	-1.5177374	1.3240339
C	-1.4434136	0.7035706	-2.1204579
C	-1.3325163	1.2995509	-0.7080076
N	-0.1963090	0.5645345	-0.1409562
C	0.7874770	0.2087091	-1.1745400
C	0.0245746	0.4223602	-2.5239606
H	-2.0145826	-0.2305060	-2.0813959
H	-1.9407575	1.3770260	-2.8248040
H	-2.2235611	1.1182825	-0.0986956
H	-1.1505173	2.3855533	-0.7370405
H	1.1273754	-0.8242459	-1.0574939
H	0.4415534	1.2825912	-3.0550474
H	0.1220524	-0.4523303	-3.1724238
O	7.6962861	5.8798811	-0.7759062
H	6.2242232	6.2301923	0.5807387
C	6.8072528	5.4941792	-0.0084523
C	6.4177872	4.0469420	0.2165799
C	7.2064886	3.0868256	-0.6832799
H	6.9710145	3.2648626	-1.7384813
H	6.9594112	2.0465050	-0.4460913
H	8.2844853	3.2273118	-0.5611317
C	4.8854330	3.8916572	0.0618137
H	6.6615545	3.8377714	1.2738921
H	4.3407842	4.5950701	0.7031914
H	4.5779071	2.8772704	0.3357460
H	4.5807555	4.0699853	-0.9760653
