37
-0.0017168 (energy)
C	1.1040222	2.1615482	0.8177519
O	0.4896313	3.1898561	1.1169389
O	2.3386939	2.1979540	0.2021992
H	2.6062689	3.1262634	0.0262107
C	0.1090648	-0.1878473	-2.5408274
H	1.0108492	-0.7421944	-2.7694924
H	-0.5641175	0.0084673	-3.3658119
C	-0.1930168	0.2487042	-1.2971120
C	-1.4468685	1.0546324	-1.0245746
H	-1.2281681	2.0506731	-0.6222250
H	-2.0131822	1.1857521	-1.9491092
H	-2.0923441	0.5445223	-0.2977465
C	1.8948210	-1.3721769	1.2655355
C	1.6883607	-1.0329761	-0.2193294
N	0.5849698	-0.0669124	-0.1744653
C	0.6196056	0.7365598	1.0567840
C	1.5987584	-0.0406954	1.9979200
H	1.1781247	-2.1430249	1.5695069
H	2.9023756	-1.7420108	1.4777931
H	1.3884633	-1.9002054	-0.8160328
H	2.5972701	-0.6032216	-0.6693988
H	-0.3780259	0.8311377	1.4949770
H	2.5215240	0.5313420	2.1290647
H	1.1551414	-0.1937133	2.9852799
O	1.1812424	-4.4223202	1.8477547
H	0.7810147	-5.9025545	0.5140018
C	0.4226321	-5.2558053	1.3398724
C	-1.0158974	-5.4914930	1.7544837
C	-1.4254352	-4.6217408	2.9500720
H	-0.8446867	-4.8896285	3.8397700
H	-2.4879395	-4.7573519	3.1786913
H	-1.2431723	-3.5621611	2.7480708
C	-1.2428515	-7.0019460	2.0058772
H	-1.6247915	-5.2121336	0.8756833
H	-0.9320015	-7.6064153	1.1451876
H	-2.3034030	-7.1998026	2.1920894
H	-0.6759836	-7.3384415	2.8818073
