37
-0.00119231 (energy)
C	1.7955721	-1.4348794	-0.4645901
O	2.6401376	-2.2387434	-0.0584893
O	1.7583009	-1.0111040	-1.7774763
H	2.4960510	-1.4111102	-2.2874237
C	2.0478200	2.7069390	0.2912973
H	1.4468985	3.1680351	-0.4827099
H	2.8538007	3.3023340	0.7014354
C	1.8269689	1.4534447	0.7480637
C	2.7142121	0.8293808	1.8060262
H	3.2138586	-0.0805042	1.4535000
H	3.4878136	1.5384473	2.1084059
H	2.1329259	0.5572745	2.6966410
C	-1.4700687	0.1827130	-0.2855069
C	-0.3500511	1.2141395	-0.4958084
N	0.7359926	0.6775976	0.3320775
C	0.7030308	-0.7918409	0.3811302
C	-0.7183234	-1.1645837	-0.1568453
H	-2.0092290	0.4094163	0.6408681
H	-2.1935790	0.1721691	-1.1061275
H	-0.6195487	2.2133253	-0.1393270
H	-0.0624926	1.2929975	-1.5562137
H	0.8619779	-1.1567626	1.3998523
H	-0.6317561	-1.6436354	-1.1360988
H	-1.2214238	-1.8640250	0.5160305
O	-1.3629495	5.4682859	5.6376947
H	-0.5722028	3.9440082	6.7246490
C	-0.6314213	4.4787780	5.7554745
C	0.2324545	3.8977635	4.6541302
C	0.0465739	4.6339662	3.3210603
H	-0.9769345	4.5094018	2.9502377
H	0.7364931	4.2426534	2.5657734
H	0.2241768	5.7073814	3.4349480
C	-0.0260434	2.3758178	4.5399574
H	1.2744248	4.0265420	4.9988007
H	0.0992335	1.8707354	5.5053562
H	0.6743427	1.9248826	3.8295291
H	-1.0440631	2.1814218	4.1826506
