37
-0.00188455 (energy)
C	2.6631199	-0.1851731	1.9718884
O	2.4875501	-1.1507415	2.7210837
O	2.8807092	1.0873574	2.4600921
H	2.8469415	1.0853683	3.4419597
N	1.7284277	0.7016180	-0.1695617
C	3.8920092	1.7062221	-0.3703272
C	2.3850563	1.9385748	-0.6233577
C	-0.4891187	1.5449676	-0.6110210
H	-0.1388394	2.5205784	-0.9224824
H	-1.5575547	1.3760559	-0.6522631
C	0.3376388	0.5568992	-0.1951449
C	-0.2032711	-0.7943854	0.2231374
H	0.0965010	-1.0689272	1.2414431
H	-1.2943701	-0.7849310	0.1848446
H	0.1500511	-1.5910133	-0.4450833
C	2.6624110	-0.2417993	0.4465232
C	4.0252660	0.1799958	-0.1602872
H	4.5071874	2.0566399	-1.2044681
H	4.2071064	2.2368892	0.5315355
H	2.1549742	2.1049044	-1.6854465
H	2.0135166	2.8086037	-0.0648944
H	2.4147142	-1.2754625	0.1945417
H	4.8730935	-0.0905893	0.4759906
H	4.1445613	-0.3362403	-1.1192733
O	5.1959994	2.1337839	-3.3952552
H	4.3212389	3.9263480	-3.0057928
C	5.0237403	3.3356856	-3.6273992
C	5.7103971	4.1174820	-4.7292682
C	6.7248233	3.2638933	-5.5012444
H	7.5452338	2.9513726	-4.8456130
H	7.1486888	3.8313481	-6.3366520
H	6.2580832	2.3564021	-5.8953850
C	6.3352982	5.4053195	-4.1400752
H	4.9024031	4.4312350	-5.4146795
H	5.5974398	5.9940850	-3.5817585
H	6.7324393	6.0351280	-4.9427034
H	7.1605083	5.1601115	-3.4613092
