37
-0.00173462 (energy)
C	-3.1403290	-0.7882492	-0.0839718
O	-4.3440753	-0.5762622	0.0906625
O	-2.5282666	-1.9386035	0.3710955
H	-3.1763345	-2.5033543	0.8467770
N	-0.9950477	0.4910372	-0.0000002
C	-0.2680650	-1.1740925	-1.5586728
C	0.1814394	-0.3215385	-0.3503611
C	0.0866256	1.4956310	1.9090339
H	0.9959262	0.9201498	1.7927848
H	0.0647971	2.2115457	2.7206848
C	-0.9859040	1.3625794	1.0937194
C	-2.2326560	2.1984233	1.2949351
H	-3.1324411	1.5850089	1.4225768
H	-2.1215763	2.8216074	2.1845169
H	-2.4114541	2.8626428	0.4388888
C	-2.1743006	0.1533053	-0.7982618
C	-1.5564646	-0.4870343	-2.0678079
H	0.5006589	-1.2224516	-2.3356882
H	-0.4905698	-2.1941824	-1.2359372
H	1.0243137	0.3420766	-0.5908061
H	0.4889252	-0.9529030	0.4944492
H	-2.7619230	1.0410330	-1.0431034
H	-2.2403067	-1.1795936	-2.5674066
H	-1.3167573	0.3174794	-2.7718559
O	3.1817883	0.2708263	1.4984035
H	4.9117851	-0.7686574	1.7366418
C	4.0240849	-0.2964310	2.2033058
C	3.9596319	-0.4152492	3.7127914
C	2.7512795	0.3237058	4.3022413
H	2.8325545	1.4016550	4.1233137
H	2.6883515	0.1578162	5.3830250
H	1.8186068	-0.0143544	3.8411878
C	5.3032404	0.0460957	4.3276510
H	3.8609917	-1.4964225	3.9187483
H	6.1544188	-0.4844155	3.8839726
H	5.3115819	-0.1440891	5.4057752
H	5.4520424	1.1209462	4.1715214
