37
-0.00161128 (energy)
C	0.1264622	3.2012167	0.8666368
O	0.0791541	3.2405309	2.0997861
O	-0.7970043	3.8589318	0.0794633
H	-1.4641655	4.3097261	0.6423920
N	0.5861335	1.5199752	-0.9244482
C	1.2418814	3.4514208	-2.1774979
C	0.5269250	2.0851352	-2.2824771
C	-0.6992374	-0.4323502	-1.5243521
H	-0.8605636	-0.1068435	-2.5439301
H	-1.1120666	-1.3947391	-1.2501857
C	-0.0117281	0.2947552	-0.6125357
C	0.1925429	-0.2100499	0.8006022
H	-0.1802999	0.4930113	1.5548410
H	-0.3328656	-1.1575975	0.9353325
H	1.2559701	-0.3815260	1.0143544
C	1.1695784	2.4445895	0.0484866
C	2.0187715	3.3876979	-0.8419747
H	1.9077840	3.6326380	-3.0264749
H	0.5057151	4.2583792	-2.1439231
H	1.0238977	1.4002525	-2.9843245
H	-0.5136565	2.2008906	-2.6151391
H	1.7883078	1.9204968	0.7804761
H	2.1711964	4.3721606	-0.3897834
H	3.0019972	2.9259439	-0.9849284
O	-0.4501806	-3.5699883	0.9634609
H	-0.9852099	-5.2275738	-0.0835951
C	-1.2906370	-4.2744886	0.3929840
C	-2.7659979	-3.9483570	0.2756522
C	-3.1366649	-2.6593898	1.0204949
H	-2.9745689	-2.7754166	2.0979260
H	-4.1901018	-2.4089877	0.8557458
H	-2.5206591	-1.8194140	0.6862629
C	-3.6048314	-5.1668759	0.7314433
H	-2.9516973	-3.8105208	-0.8049036
H	-3.3156989	-6.0797373	0.1967622
H	-4.6680250	-4.9870109	0.5420770
H	-3.4769130	-5.3454303	1.8054904
