37
-0.00141499 (energy)
C	2.6631199	0.1851732	-1.9718884
O	2.4875501	1.1507416	-2.7210836
O	2.8807092	-1.0873573	-2.4600921
H	2.8469415	-1.0853681	-3.4419597
N	1.7284277	-0.7016180	0.1695617
C	3.8920092	-1.7062222	0.3703271
C	2.3850563	-1.9385749	0.6233576
C	-0.4891187	-1.5449677	0.6110209
H	-0.1388394	-2.5205784	0.9224822
H	-1.5575547	-1.3760559	0.6522630
C	0.3376388	-0.5568992	0.1951448
C	-0.2032711	0.7943854	-0.2231374
H	0.0965010	1.0689272	-1.2414430
H	-1.2943701	0.7849311	-0.1848446
H	0.1500511	1.5910133	0.4450834
C	2.6624110	0.2417993	-0.4465232
C	4.0252660	-0.1799958	0.1602872
H	4.5071874	-2.0566399	1.2044680
H	4.2071064	-2.2368892	-0.5315356
H	2.1549742	-2.1049045	1.6854464
H	2.0135166	-2.8086037	0.0648943
H	2.4147142	1.2754625	-0.1945416
H	4.8730935	0.0905893	-0.4759906
H	4.1445613	0.3362403	1.1192733
O	1.1170559	1.1838235	-9.4569514
H	2.0769813	-0.5627319	-9.0591320
C	1.5434747	0.3287643	-8.6726220
C	1.4022049	0.3818274	-7.1646281
C	0.7255050	1.6742940	-6.6900458
H	1.3450433	2.5455598	-6.9301774
H	0.5689251	1.6512632	-5.6062907
H	-0.2418749	1.8163777	-7.1806799
C	2.7836347	0.1510649	-6.5054046
H	0.7656103	-0.4812580	-6.8983298
H	3.2557307	-0.7702611	-6.8674561
H	2.6762037	0.0709978	-5.4188322
H	3.4594125	0.9874751	-6.7188626
