37
-0.00122111 (energy)
C	2.9784444	-0.8245925	1.2098581
O	2.7974772	-1.7497508	2.0072124
O	3.5905833	0.3538959	1.5859868
H	3.8156666	0.3302229	2.5420126
N	1.7340133	0.3091822	-0.6372485
C	3.9353724	0.8190604	-1.4276052
C	2.5040870	1.3844354	-1.2837553
C	-0.2800548	1.6321464	-0.5071254
H	0.1819808	2.5156887	-0.9283097
H	-1.3319964	1.7035600	-0.2619590
C	0.3885805	0.4745889	-0.2932384
C	-0.3071925	-0.7365290	0.2920879
H	0.1809429	-1.1003729	1.2039676
H	-1.3404445	-0.4862990	0.5407403
H	-0.3253895	-1.5711403	-0.4213996
C	2.5656796	-0.8343553	-0.2596574
C	3.7800885	-0.7046694	-1.2145899
H	4.3719417	1.0502722	-2.4038102
H	4.5844224	1.2404502	-0.6559740
H	2.0461775	1.6287425	-2.2529141
H	2.4925454	2.2978829	-0.6735475
H	2.0396538	-1.7803241	-0.4071289
H	4.6840050	-1.1737986	-0.8149277
H	3.5274400	-1.2057912	-2.1555634
O	0.0411546	-7.5058761	1.5290143
H	1.8230301	-7.1898642	2.4538002
C	0.9571049	-6.7664415	1.9063776
C	1.0154894	-5.2684782	1.6838562
C	-0.1704859	-4.7579695	0.8553245
H	-0.1448053	-5.1785270	-0.1561432
H	-0.1423033	-3.6660280	0.7750616
H	-1.1227197	-5.0514389	1.3068330
C	2.3844028	-4.8879095	1.0695121
H	0.9747467	-4.8194790	2.6927286
H	3.2179752	-5.2729403	1.6692669
H	2.4843070	-3.7991877	1.0121038
H	2.4792556	-5.2913613	0.0545976
