37
-0.00087553 (energy)
C	0.6633289	-0.8014230	2.2723495
O	1.6012328	-1.4120024	2.7938569
O	-0.6495490	-1.0421438	2.6236709
H	-0.6959706	-1.7551759	3.2979397
N	0.0000000	0.0000000	0.0000000
C	-1.2250764	1.6378048	1.2439471
C	-1.2760021	0.7340936	-0.0089025
C	-0.5689311	-1.3021584	-1.9504712
H	-1.5593122	-0.8749669	-2.0408751
H	-0.2812307	-2.0260064	-2.7021759
C	0.2984203	-0.9650793	-0.9671914
C	1.6770092	-1.5872109	-0.8900003
H	1.8623596	-2.0773102	0.0731357
H	1.7900290	-2.3366494	-1.6758892
H	2.4641375	-0.8339075	-1.0276030
C	0.8005793	0.2709659	1.1948105
C	0.2638184	1.6485098	1.6614622
H	-1.5964455	2.6461577	1.0381868
H	-1.8343872	1.2069028	2.0422664
H	-1.3593183	1.3089721	-0.9422884
H	-2.1281430	0.0418189	0.0296290
H	1.8671687	0.3145738	0.9628769
H	0.4050596	1.8161063	2.7333016
H	0.8139168	2.4278163	1.1225200
O	0.6119314	-7.2688159	3.4156678
H	1.1072403	-7.7780060	1.5115756
C	1.1638998	-7.0370607	2.3341171
C	1.9466936	-5.7813170	2.0067637
C	1.9218214	-4.7655192	3.1561798
H	0.9019804	-4.4053055	3.3315804
H	2.5559192	-3.9037317	2.9220537
H	2.2738034	-5.2161770	4.0887836
C	1.4398102	-5.1872720	0.6702178
H	2.9861201	-6.1176187	1.8406988
H	1.4533266	-5.9322945	-0.1344909
H	2.0730540	-4.3482314	0.3642688
H	0.4133185	-4.8170103	0.7753043
