37
-0.000804827 (energy)
C	3.1403290	0.7882492	-0.0839718
O	4.3440753	0.5762623	0.0906627
O	2.5282666	1.9386036	0.3710953
H	3.1763344	2.5033544	0.8467767
N	0.9950477	-0.4910372	-0.0000001
C	0.2680651	1.1740923	-1.5586729
C	-0.1814394	0.3215384	-0.3503612
C	-0.0866257	-1.4956307	1.9090341
H	-0.9959263	-0.9201495	1.7927849
H	-0.0647973	-2.2115452	2.7206852
C	0.9859039	-1.3625792	1.0937197
C	2.2326559	-2.1984231	1.2949356
H	3.1324411	-1.5850086	1.4225772
H	2.1215761	-2.8216071	2.1845174
H	2.4114541	-2.8626427	0.4388894
C	2.1743006	-0.1533054	-0.7982617
C	1.5564647	0.4870340	-2.0678079
H	-0.5006587	1.2224513	-2.3356884
H	0.4905699	2.1941822	-1.2359376
H	-1.0243136	-0.3420767	-0.5908061
H	-0.4889253	0.9529031	0.4944490
H	2.7619230	-1.0410331	-1.0431031
H	2.2403068	1.1795932	-2.5674067
H	1.3167574	-0.3174798	-2.7718558
O	6.5439394	5.4520587	5.3251087
H	4.6674212	5.0485727	5.9929792
C	5.4921549	4.8032755	5.2941028
C	5.2059002	3.6521579	4.3508081
C	6.3530477	3.4142093	3.3603262
H	6.4762322	4.2775897	2.6970050
H	6.1520948	2.5318555	2.7433640
H	7.3022094	3.2666599	3.8838286
C	3.8454735	3.8821332	3.6490062
H	5.0930530	2.7631777	4.9973864
H	3.0421367	4.0630037	4.3733910
H	3.5727367	3.0041999	3.0544985
H	3.8981008	4.7452537	2.9751551
