37
-0.00063194 (energy)
C	0.0318149	0.2796493	-2.0244663
O	-0.5803737	-0.1392383	-3.0114815
O	0.8101088	1.4182785	-2.0774168
H	0.8062773	1.7909387	-2.9864371
N	1.3715899	-0.6538717	-0.1325366
C	0.6556501	1.3376493	0.9863449
C	1.8512643	0.3751620	0.8045633
C	3.5022883	-1.7843437	-0.2086570
H	3.9926440	-1.0658331	0.4354034
H	4.1005591	-2.6197527	-0.5491732
C	2.2050265	-1.6829532	-0.5822771
C	1.5638454	-2.7206384	-1.4798347
H	1.1329284	-2.2812180	-2.3872504
H	2.3087947	-3.4583678	-1.7845619
H	0.7552499	-3.2531339	-0.9615747
C	0.0296729	-0.3721426	-0.6442096
C	-0.5644909	0.5563420	0.4459230
H	0.5197439	1.6306925	2.0316597
H	0.8107620	2.2441473	0.3960471
H	2.1564841	-0.1031408	1.7462124
H	2.7290716	0.8971147	0.3997264
H	-0.5583089	-1.2860148	-0.7556686
H	-1.3528898	1.2097546	0.0607522
H	-1.0009207	-0.0742825	1.2283724
O	4.6444948	-7.6450500	3.8712100
H	5.8171454	-7.4466612	2.2232703
C	5.1585752	-6.9666854	2.9747311
C	4.9681679	-5.4741414	2.7934135
C	3.9872138	-4.8856053	3.8156539
H	2.9836704	-5.3013642	3.6719865
H	3.9274839	-3.7971630	3.7093601
H	4.2948080	-5.1211816	4.8386999
C	4.5597628	-5.1769081	1.3301866
H	5.9674152	-5.0290372	2.9498452
H	5.2660937	-5.6168250	0.6157867
H	4.5327815	-4.0963090	1.1564933
H	3.5628663	-5.5799202	1.1166436
