37
-0.0026021 (energy)
C	0.4466630	0.1241212	0.1669989
O	-0.0895009	-0.7031358	0.9103796
O	-0.1791068	0.5993628	-0.9677166
H	-1.0553419	0.1690619	-1.0784476
N	2.7120202	0.5739542	-0.7878118
C	1.9227242	2.8327559	-0.8616215
C	2.7608295	1.7830340	-1.6262017
C	3.9714682	-0.7472834	-2.3663424
H	4.0374187	0.0490036	-3.0964777
H	4.4647120	-1.6779431	-2.6160835
C	3.3231184	-0.6197298	-1.1847618
C	3.2668066	-1.7632859	-0.1934888
H	2.2389254	-2.0393247	0.0700370
H	3.7537877	-2.6444204	-0.6159864
H	3.7841472	-1.5084537	0.7410650
C	1.8343470	0.7254823	0.3735025
C	1.7881371	2.2626713	0.5695078
H	2.3982484	3.8180995	-0.8632388
H	0.9354071	2.9304554	-1.3197808
H	3.8073694	2.0923728	-1.7592419
H	2.3452358	1.5866401	-2.6239915
H	2.2409949	0.2217481	1.2533873
H	0.8788937	2.5967591	1.0779751
H	2.6458766	2.5524598	1.1865094
O	-5.4875963	-2.6064315	-0.9943200
H	-4.3621004	-4.2443343	-1.4194156
C	-4.4253282	-3.2377067	-0.9595373
C	-3.1412964	-2.7481229	-0.3204846
C	-3.2729044	-1.3212866	0.2276385
H	-3.4534150	-0.6098786	-0.5859399
H	-2.3569270	-1.0231627	0.7488681
H	-4.1133820	-1.2417594	0.9233440
C	-1.9717140	-2.9000282	-1.3230698
H	-2.9457451	-3.4428524	0.5162916
H	-1.9030766	-3.9229816	-1.7124959
H	-1.0213122	-2.6597931	-0.8356118
H	-2.0988701	-2.2191736	-2.1728288
