37
-0.000402232 (energy)
C	-2.4596074	-0.6523265	-2.0037104
O	-3.2694777	-1.3980676	-2.5626569
O	-1.6982290	0.2577086	-2.7088064
H	-1.8889156	0.1883394	-3.6700737
N	-0.7622508	-0.7872861	-0.1743326
C	-1.2072454	1.5561454	0.0279784
C	-0.0862172	0.4937983	0.0882609
C	1.2934626	-2.0499437	-0.1162393
H	1.9153037	-1.1761569	0.0298095
H	1.7984603	-3.0070452	-0.1431030
C	-0.0522167	-1.9896998	-0.2514348
C	-0.8779451	-3.2442008	-0.4461485
H	-1.4851740	-3.2089189	-1.3584046
H	-0.2210408	-4.1137255	-0.5129054
H	-1.5651683	-3.4053771	0.3951113
C	-2.1787236	-0.6227403	-0.5036521
C	-2.5214824	0.7481926	0.1339707
H	-1.1178248	2.2934142	0.8313877
H	-1.1702436	2.0867298	-0.9266739
H	0.4049069	0.4520911	1.0709579
H	0.6923642	0.6885096	-0.6619202
H	-2.7862495	-1.4250097	-0.0787004
H	-3.3664718	1.2421810	-0.3547478
H	-2.7904094	0.5776165	1.1822872
O	5.3170320	3.8312073	-2.5178625
H	4.9821657	2.2467975	-3.7457399
C	4.7740881	2.7523788	-2.7814390
C	3.8071687	2.0188104	-1.8738254
C	3.6221876	2.7296670	-0.5269452
H	4.5615087	2.7393707	0.0371264
H	2.8634675	2.2198345	0.0763683
H	3.3157435	3.7702088	-0.6687131
C	4.2573075	0.5459785	-1.7178879
H	2.8442570	2.0097973	-2.4158620
H	4.3962434	0.0602764	-2.6913291
H	3.5057965	-0.0228496	-1.1608803
H	5.2040823	0.4862609	-1.1684579
