37
-0.00345799 (energy)
C	0.6280085	1.7934633	2.6228131
O	0.6650555	2.0100833	3.8377798
O	0.0735713	2.6953124	1.7372121
H	-0.2823477	3.4725408	2.2214084
N	0.1727883	-0.1262680	1.0887783
C	1.5815421	1.1010052	-0.4078293
C	0.3135318	0.2202258	-0.3350501
C	-1.8950739	-1.3212310	0.7428795
H	-1.9384892	-1.0936342	-0.3143976
H	-2.6906037	-1.9384134	1.1403790
C	-0.9059031	-0.8833721	1.5568702
C	-0.8875658	-1.2369219	3.0293442
H	-0.8570222	-0.3498507	3.6730481
H	-1.7829217	-1.8071043	3.2848490
H	-0.0134769	-1.8517021	3.2822973
C	1.1636977	0.5408873	1.9343102
C	2.3066705	0.8591076	0.9363862
H	2.2132655	0.8413753	-1.2625490
H	1.3023473	2.1536888	-0.4981484
H	0.4039602	-0.7015492	-0.9273250
H	-0.5718383	0.7601201	-0.6976894
H	1.5068590	-0.1099199	2.7417743
H	2.9174272	1.7105632	1.2508333
H	2.9583977	-0.0194415	0.8748334
O	4.4681216	-1.4886281	1.7957117
H	6.0603563	-2.7458005	1.6753835
C	5.2129573	-2.3525745	2.2721021
C	5.0753042	-2.9549686	3.6559343
C	3.9343746	-2.3145427	4.4570307
H	4.1425544	-1.2557158	4.6471409
H	3.8101334	-2.8195368	5.4209383
H	2.9889937	-2.3681519	3.9092036
C	6.4363292	-2.8854690	4.3900706
H	4.8484404	-4.0236868	3.4902291
H	7.2400388	-3.3365349	3.7956061
H	6.3802494	-3.4207836	5.3434252
H	6.7103017	-1.8450835	4.6006867
