37
-0.00340234 (energy)
C	2.9784444	-1.0482886	-1.0221548
O	2.7974772	-1.6728771	-2.0717170
O	3.5905833	-1.6233455	0.0731155
H	3.8156666	-2.5607363	-0.1162100
N	1.7340133	0.5738783	0.4151421
C	3.9353724	1.2636882	1.0545181
C	2.5040870	1.0238474	1.5863245
C	-0.2800548	0.2160017	1.6954118
H	0.1819808	0.4773616	2.6386690
H	-1.3319964	-0.0378409	1.7231678
C	0.3885805	0.2063719	0.5182992
C	-0.3071925	-0.1597535	-0.7760600
H	0.1809429	-0.9945987	-1.2927226
H	-1.3404445	-0.4480803	-0.5728097
H	-0.3253895	0.6878233	-1.4740958
C	2.5656796	0.4005970	-0.7765905
C	3.7800885	1.3185021	-0.4830525
H	4.3719417	2.1849130	1.4517336
H	4.5844224	0.4306063	1.3355137
H	2.0461775	1.9358590	1.9952128
H	2.4925454	0.2642915	2.3799333
H	2.0396538	0.7100939	-1.6825798
H	4.6840050	1.0063751	-1.0144552
H	3.5274400	2.3321991	-0.8131626
O	0.1426727	2.0177210	-3.2864841
H	0.9219736	3.8894794	-3.1472606
C	0.1458473	3.2207871	-3.5706556
C	-0.8532132	3.9031739	-4.4833685
C	-1.8509599	2.9119823	-5.0962813
H	-1.3358090	2.1998737	-5.7505870
H	-2.6045588	3.4413621	-5.6890868
H	-2.3595289	2.3329951	-4.3198376
C	-0.0989800	4.7324531	-5.5508906
H	-1.3984030	4.6178300	-3.8406257
H	0.6178566	5.4248096	-5.0930858
H	-0.8069468	5.3217754	-6.1425612
H	0.4505049	4.0753040	-6.2350276
