37
-0.00337258 (energy)
C	2.9796640	-0.7882493	-0.9951481
O	4.0510870	-0.5762624	-1.5709562
O	2.2488714	-1.9386037	-1.2134335
H	2.6951633	-2.5033546	-1.8820801
N	0.9350390	0.4910372	-0.3403263
C	0.7849963	-1.1740922	1.3729899
C	-0.0506666	-0.3215384	0.3912878
C	-0.7343296	1.4956306	-1.7642776
H	-1.5490331	0.9201495	-1.3440399
H	-0.9914186	2.2115451	-2.5344459
C	0.5523725	1.3625791	-1.3649594
C	1.6551163	2.1984230	-1.9804549
H	2.4569817	1.5850085	-2.4081433
H	1.2464805	2.8216069	-2.7783969
H	2.1159166	2.8626426	-1.2371871
C	2.3161958	0.1533054	0.0064660
C	2.1698303	-0.4870339	1.4107616
H	0.3283871	-1.2224511	2.3660646
H	0.8837004	-2.1941822	0.9936167
H	-0.7604724	0.3420768	0.9055120
H	-0.6285510	-0.9529031	-0.2974077
H	2.9521210	1.0410331	0.0355629
H	2.9833045	-1.1795931	1.6463432
H	2.1853778	0.3174799	2.1543349
O	3.6188017	2.0913914	2.4307905
H	5.5974462	1.6390111	2.5332142
C	4.7353906	2.1970822	2.9505888
C	5.0567021	3.0544060	4.1583029
C	3.8419707	3.8587384	4.6390297
H	3.5296629	4.5803020	3.8758751
H	4.0825747	4.4087958	5.5550642
H	2.9885649	3.2038083	4.8377720
C	6.2831772	3.9470085	3.8497663
H	5.3602117	2.3455445	4.9498085
H	7.1356014	3.3547626	3.4956264
H	6.5965101	4.4847263	4.7504737
H	6.0391193	4.6881673	3.0797394
