37
-0.00326618 (energy)
C	-0.4032593	0.2579425	-0.1168336
O	0.4772069	0.4026673	-0.9702237
O	-0.2170066	-0.5361001	0.9966420
H	0.6719733	-0.9536019	0.9718400
N	-2.8810558	-0.0579842	-0.0357694
C	-2.6552876	0.9462797	2.1255042
C	-3.4123936	-0.1445241	1.3343929
C	-4.1876598	-1.9308988	-0.8159067
H	-4.6159911	-2.1352622	0.1568667
H	-4.5119881	-2.5632051	-1.6324771
C	-3.2968752	-0.9366643	-1.0412083
C	-2.7328369	-0.6873865	-2.4244057
H	-1.6372140	-0.7252488	-2.4433751
H	-3.1074307	-1.4418881	-3.1189988
H	-3.0301464	0.2985063	-2.8059734
C	-1.7853584	0.9044987	-0.1582255
C	-2.0285266	1.8547168	1.0423820
H	-3.3191821	1.5062663	2.7908516
H	-1.8690309	0.4913924	2.7330631
H	-4.4986833	0.0235544	1.3154130
H	-3.2401103	-1.1422857	1.7606129
H	-1.8262061	1.4416214	-1.1085615
H	-1.1143455	2.3521404	1.3796057
H	-2.7365910	2.6283797	0.7254024
O	3.3667113	0.2464182	0.8963428
H	3.3434248	2.0434783	-0.0524488
C	3.3098537	1.4812717	0.9023190
C	3.1932482	2.3421842	2.1441126
C	3.0734521	1.5032845	3.4229862
H	2.1466906	0.9187642	3.4163412
H	3.0670196	2.1489419	4.3076657
H	3.9042466	0.7970418	3.5109364
C	2.0263713	3.3448202	1.9729568
H	4.1269759	2.9319405	2.1818476
H	2.1239471	3.9248171	1.0472786
H	2.0053057	4.0482823	2.8115801
H	1.0646335	2.8192825	1.9466402
