37
-0.0031695 (energy)
C	0.6633289	-0.0240982	-2.4094129
O	1.6012328	0.3712927	-3.1082999
O	-0.6495490	0.0819464	-2.8218783
H	-0.6959706	0.5213638	-3.6993552
N	0.0000000	0.0000000	0.0000000
C	-1.2250764	-1.9644881	-0.6087656
C	-1.2760021	-0.6867775	0.2594405
C	-0.5689311	1.8907291	1.3874789
H	-1.5593122	1.5202204	1.6185389
H	-0.2812307	2.8280220	1.8462796
C	0.2984203	1.2376769	0.5787860
C	1.6770092	1.7958885	0.2934685
H	1.8623596	1.9270192	-0.7792071
H	1.7900290	2.7689201	0.7756395
H	2.4641375	1.1350777	0.6804178
C	0.8005793	-0.6632739	-1.0300788
C	0.2638184	-2.1173461	-0.9974401
H	-1.5964455	-2.8416557	-0.0705371
H	-1.8343872	-1.8326140	-1.5063176
H	-1.3593183	-0.9077497	1.3331563
H	-2.1281430	-0.0494307	-0.0135393
H	1.8671687	-0.6249260	-0.7972177
H	0.4050596	-2.6414260	-1.9473183
H	0.8139168	-2.6653255	-0.2244616
O	2.4601475	-0.9864911	1.6735537
H	2.7743397	0.6064579	2.8958340
C	2.6097393	-0.4849699	2.7934780
C	2.5891949	-1.2509238	4.1010371
C	2.2806865	-2.7398080	3.8969101
H	1.2704550	-2.8734739	3.4942181
H	2.3469450	-3.2804329	4.8471244
H	2.9779852	-3.1935246	3.1865234
C	1.6134859	-0.5660828	5.0885390
H	3.6059312	-1.1440941	4.5204635
H	1.8429582	0.4994215	5.2103606
H	1.6767874	-1.0399019	6.0734654
H	0.5794065	-0.6542820	4.7353779
