37
-0.00303387 (energy)
C	0.4466630	-0.2066859	0.0239927
O	-0.0895009	-0.4368440	-1.0641233
O	-0.1791068	0.5383858	1.0029217
H	-1.0553419	0.8494321	0.6856356
N	2.7120202	0.3952879	0.8909648
C	1.9227241	-0.6701917	2.8840494
C	2.7608295	0.5168151	2.3572536
C	3.9714682	2.4229543	0.5360047
H	4.0374187	2.6571266	1.5906771
H	4.4647120	3.1045663	-0.1450997
C	3.3231184	1.3358987	0.0556791
C	3.2668066	1.0492091	-1.4303060
H	2.2389254	0.9590084	-1.8011255
H	3.7537877	1.8556700	-1.9821421
H	3.7841472	0.1124457	-1.6768917
C	1.8343470	-0.6862038	0.4415349
C	1.7881371	-1.6245438	1.6747770
H	2.3982484	-1.1614629	3.7381906
H	0.9354071	-0.3222639	3.1977392
H	3.8073694	0.4773619	2.6916689
H	2.3452358	1.4791233	2.6860663
H	2.2409949	-1.1963393	-0.4346541
H	0.8788937	-2.2319333	1.7098719
H	2.6458766	-2.3037772	1.6172404
O	0.5235325	1.8305805	-3.0719289
H	-1.2143226	0.9219433	-2.5386269
C	-0.6945534	1.6547150	-3.1879884
C	-1.5887860	2.3758590	-4.1764811
C	-0.8248122	3.4290484	-4.9893509
H	-0.4528093	4.2262721	-4.3361715
H	-1.4769980	3.8794136	-5.7452594
H	0.0410554	2.9879870	-5.4918165
C	-2.8142716	2.9631728	-3.4352504
H	-1.9651222	1.5922027	-4.8586377
H	-3.3383453	2.1975899	-2.8504195
H	-3.5249796	3.3848735	-4.1533412
H	-2.5069144	3.7635569	-2.7520675
