37
-0.00291618 (energy)
C	-0.2007424	-1.5827105	1.9236909
O	0.4415655	-2.5139359	2.4183630
O	-1.5755156	-1.6244526	1.8084609
H	-1.9192524	-2.4808762	2.1454947
N	0.0000000	0.0000000	0.0000000
C	-1.3594054	1.4065054	1.3799930
C	-1.1103159	0.9633344	-0.0796211
C	-0.0600746	-0.4852362	-2.3631703
H	-0.9117012	0.1558870	-2.5508220
H	0.3671945	-0.9893679	-3.2205383
C	0.4783799	-0.6641222	-1.1340134
C	1.6762454	-1.5671529	-0.9262463
H	1.4835411	-2.3562740	-0.1898117
H	1.9473615	-2.0461431	-1.8691765
H	2.5482485	-1.0002636	-0.5737996
C	0.3999907	-0.2900981	1.3775965
C	-0.0932365	0.9615051	2.1481286
H	-1.5242932	2.4852011	1.4590840
H	-2.2389511	0.8972967	1.7816844
H	-0.8213751	1.7994745	-0.7323223
H	-2.0044310	0.4975524	-0.5160595
H	1.4819001	-0.4133067	1.4647721
H	-0.2853906	0.7581741	3.2057725
H	0.6880611	1.7272412	2.0880645
O	2.8657609	1.6183601	1.0212281
H	4.2945919	2.6907242	0.0523886
C	3.6481599	2.5723967	0.9450863
C	3.8184215	3.6460879	2.0010297
C	2.8430378	3.4687603	3.1718426
H	1.8077184	3.5894745	2.8340009
H	3.0394151	4.2116320	3.9523234
H	2.9292765	2.4698811	3.6094915
C	3.7168015	5.0430562	1.3419937
H	4.8540224	3.5341788	2.3699346
H	4.4122389	5.1446409	0.5000645
H	3.9534793	5.8242219	2.0716206
H	2.7015092	5.2228955	0.9696209
