37
-0.00256094 (energy)
C	-0.1816367	0.3695005	0.2707029
O	1.0401239	0.4815330	0.1321728
O	-0.8860909	-0.6791985	-0.2851717
H	-0.2818980	-1.2624857	-0.7950101
N	-2.1981587	1.8457547	0.2577058
C	-3.1098851	0.1375797	1.6653685
C	-3.4518219	1.1211978	0.5232239
C	-3.1396080	3.0946056	-1.5801412
H	-4.1002346	2.5989826	-1.5246935
H	-3.0338409	3.8673129	-2.3308237
C	-2.1025613	2.7981181	-0.7619789
C	-0.7801973	3.5274247	-0.8759038
H	0.0622326	2.8448542	-1.0389751
H	-0.8134771	4.2266461	-1.7137789
H	-0.5607291	4.1022956	0.0336723
C	-1.0732412	1.3375249	1.0439532
C	-1.7758113	0.6591522	2.2479919
H	-3.8972318	0.0997651	2.4241064
H	-2.9745623	-0.8700711	1.2646470
H	-4.2355523	1.8393673	0.8036435
H	-3.7966460	0.5900392	-0.3744621
H	-0.4124233	2.1444710	1.3687078
H	-1.1698420	-0.1314555	2.7003391
H	-1.9566701	1.4242876	3.0110406
O	2.0360525	-0.1834316	4.0953011
H	1.6746076	-0.4870906	2.1186065
C	2.3742339	-0.5779086	2.9736269
C	3.7133912	-1.2023648	2.6366841
C	4.6617512	-1.2281088	3.8423258
H	4.9146671	-0.2094428	4.1568864
H	5.5904081	-1.7513080	3.5904698
H	4.1988549	-1.7285461	4.6979092
C	4.3250449	-0.4872862	1.4075716
H	3.4856150	-2.2394345	2.3305986
H	3.6270644	-0.4683731	0.5618394
H	5.2347061	-1.0029316	1.0831981
H	4.5909456	0.5473523	1.6538275
