37
-0.00247238 (energy)
C	1.1857155	-0.1447758	-1.6585531
O	1.4050223	-0.9678974	-2.5523183
O	1.5635830	1.1775659	-1.7753865
H	2.0277889	1.3245558	-2.6286831
N	1.2745052	-0.0406999	0.8368709
C	-0.3875949	1.6570420	0.5440965
C	0.8496982	1.2596190	1.3808044
C	3.2012235	-0.1797756	2.2832635
H	3.0298687	0.7903172	2.7316802
H	4.0488667	-0.7429871	2.6521556
C	2.4108480	-0.7006997	1.3154284
C	2.6899513	-2.0674977	0.7259557
H	2.8113445	-2.0373468	-0.3633273
H	3.6068648	-2.4761573	1.1552803
H	1.8745575	-2.7705658	0.9422886
C	0.4936622	-0.4475952	-0.3321638
C	-0.8240825	0.3504406	-0.1584080
H	-1.1875235	2.0709875	1.1652174
H	-0.1115093	2.4078589	-0.2004172
H	0.6198858	1.1498664	2.4502793
H	1.6519189	2.0046837	1.2902849
H	0.3114773	-1.5246601	-0.3390742
H	-1.3390295	0.5277864	-1.1072259
H	-1.4923839	-0.2329972	0.4845220
O	-1.0520618	-5.7300539	-6.3279387
H	-2.0668739	-3.9719007	-6.2318841
C	-1.1604555	-4.5526102	-5.9673714
C	-0.1282420	-3.7894529	-5.1618003
C	1.0633115	-4.6695151	-4.7626612
H	0.7422002	-5.4731717	-4.0906353
H	1.8259229	-4.0748106	-4.2485378
H	1.5180836	-5.1394444	-5.6396346
C	-0.8115558	-3.1176387	-3.9461017
H	0.2237505	-2.9798914	-5.8264771
H	-1.6678015	-2.5041025	-4.2514116
H	-0.1012387	-2.4694934	-3.4227003
H	-1.1686673	-3.8727806	-3.2361340
