37
-0.00246501 (energy)
C	2.2576227	1.0511764	0.2098204
O	2.7830268	2.1489746	0.0019012
O	2.8918006	-0.1331633	-0.1066912
H	3.7640076	0.0481762	-0.5209123
N	0.0000000	0.0000000	0.0000000
C	0.8122495	-1.4251604	1.7434993
C	-0.0339235	-1.4011504	0.4503117
C	-1.2676064	-0.4607271	-2.0011351
H	-1.3231781	-1.5250963	-1.8125876
H	-1.7693956	-0.0974023	-2.8888232
C	-0.6218132	0.4053639	-1.1852934
C	-0.5802198	1.8881077	-1.4906687
H	0.4439737	2.2740780	-1.5557655
H	-1.0746913	2.0842286	-2.4441295
H	-1.0979737	2.4705805	-0.7169582
C	0.8754105	0.8374165	0.8211649
C	0.9364754	0.0587625	2.1603709
H	0.3466855	-2.0296923	2.5276034
H	1.8019713	-1.8397081	1.5364948
H	-1.0768595	-1.7039420	0.6213026
H	0.3828817	-2.0702399	-0.3148458
H	0.4608759	1.8386818	0.9587755
H	1.8473966	0.2671780	2.7292846
H	0.0797167	0.3649308	2.7707895
O	8.2210818	4.6983002	-1.2751768
H	7.5752934	3.9600512	-3.0550977
C	7.4241297	4.0476009	-1.9604428
C	6.2041807	3.3240882	-1.4265212
C	6.0951637	3.4189359	0.1008099
H	6.9381109	2.9093823	0.5807999
H	5.1672982	2.9535112	0.4501208
H	6.1111426	4.4609084	0.4336332
C	6.2016296	1.8632437	-1.9384802
H	5.3367373	3.8319499	-1.8855445
H	6.2933583	1.8171575	-3.0303865
H	5.2685496	1.3647196	-1.6566520
H	7.0335068	1.2982190	-1.5019605
