37
-0.00242033 (energy)
C	2.5366578	-2.0994692	0.4152556
O	2.4083960	-2.5986510	1.5372214
O	3.6777136	-1.4160288	0.0465790
H	4.3111071	-1.3818924	0.7968160
N	1.1422943	-0.8340493	-1.2280093
C	2.6501280	-1.7944037	-2.8201080
C	1.8581313	-0.5131303	-2.4736988
C	0.2101187	1.3823132	-1.0220416
H	0.7217242	1.7616189	-1.8972028
H	-0.4454881	2.0715039	-0.5053371
C	0.3493669	0.1130677	-0.5721684
C	-0.3958140	-0.3706180	0.6543173
H	0.2768009	-0.7665154	1.4244066
H	-0.9615045	0.4535640	1.0933742
H	-1.1059190	-1.1693569	0.4018524
C	1.4928327	-2.1521191	-0.6972205
C	2.0064946	-2.9015611	-1.9534018
H	2.5994035	-2.0326386	-3.8867378
H	3.7013914	-1.6704649	-2.5485674
H	1.1310766	-0.2415189	-3.2523224
H	2.5271732	0.3466840	-2.3323638
H	0.6264065	-2.6525659	-0.2588525
H	2.7018972	-3.7098232	-1.7084428
H	1.1425642	-3.3423394	-2.4630333
O	2.5595695	-0.4458531	3.7905486
H	1.1677152	-1.8510262	3.3232127
C	1.7398741	-1.3153523	4.1070957
C	1.4256583	-1.7409179	5.5273002
C	2.3041021	-1.0192496	6.5574228
H	3.3573506	-1.2907933	6.4250338
H	2.0042147	-1.2893186	7.5756089
H	2.2305612	0.0666403	6.4471129
C	1.5136646	-3.2823437	5.6388200
H	0.3690104	-1.4619878	5.6909368
H	0.8892049	-3.7786363	4.8861307
H	1.1761455	-3.6105054	6.6272443
H	2.5470034	-3.6223034	5.5029511
