37
-0.00199607 (energy)
C	-0.4032593	0.2726946	0.0763025
O	0.4772071	0.9321088	-0.4844049
O	-0.2170067	-1.0513056	0.4188735
H	0.6719732	-1.3551882	0.1315092
N	-2.8810558	-0.0214261	-0.0646727
C	-2.6552878	-0.6413552	2.2364874
C	-3.4123938	-0.9684428	0.9293058
C	-4.1876598	-0.9546992	-1.8661788
H	-4.6159912	-1.7365373	-1.2523534
H	-4.5119880	-0.9141926	-2.8981468
C	-3.2968752	-0.0482504	-1.3996883
C	-2.7328367	1.0318095	-2.2990462
H	-1.6372137	1.0149986	-2.3379150
H	-3.1074304	0.9003037	-3.3161197
H	-3.0301461	2.0323143	-1.9576244
C	-1.7853583	0.7945917	0.4601927
C	-2.0285267	0.7507655	1.9906998
H	-3.3191823	-0.6400575	3.1061255
H	-1.8690311	-1.3803505	2.4095086
H	-4.4986835	-0.8274870	1.0228051
H	-3.2401105	-2.0067414	0.6144605
H	-1.8262060	1.8169158	0.0774489
H	-1.1143456	0.9150508	2.5687659
H	-2.7365910	1.5471763	2.2451802
O	5.9165575	-2.2334981	-3.4601620
H	4.0722286	-1.8272529	-4.2108875
C	4.8063419	-1.6942644	-3.3910237
C	4.3278306	-0.8291791	-2.2423406
C	5.3576991	-0.7485222	-1.1081067
H	5.5101274	-1.7338651	-0.6537279
H	5.0181767	-0.0584977	-0.3282584
H	6.3281506	-0.4067579	-1.4797981
C	2.9428357	-1.3252597	-1.7608134
H	4.1816779	0.1777081	-2.6735033
H	2.2256487	-1.3881272	-2.5881512
H	2.5344843	-0.6396509	-1.0112926
H	3.0243985	-2.3183218	-1.3036514
