37
-0.0118756 (energy)
C	-0.3111110	-0.3611332	0.0433701
O	-0.8824075	0.5904109	-0.4738683
O	1.0288088	-0.2526807	0.3898711
H	1.3808519	-1.0600705	0.8166952
N	-2.2678087	-1.5927747	0.9927643
C	-3.6633303	-0.5448651	2.6644957
H	-4.5538566	-0.5752643	2.0496653
H	-3.7739697	-0.1351020	3.6602904
C	-2.4550588	-0.9731912	2.2360221
C	-1.2272857	-0.8702917	3.1166595
H	-0.4548086	-0.2208688	2.6861586
H	-1.4998013	-0.4494229	4.0865428
H	-0.7769152	-1.8568614	3.2910330
C	-2.7515838	-2.9666627	-0.8490865
C	-3.3928366	-1.9672862	0.1244007
C	-0.9749184	-1.7226419	0.3149556
C	-1.3277156	-2.4041505	-1.0477754
H	-2.7142297	-3.9616573	-0.3911719
H	-3.2962731	-3.0465150	-1.7943853
H	-4.1887083	-2.4139918	0.7294423
H	-3.8114637	-1.0955402	-0.4020355
H	-0.2905646	-2.3543633	0.9023728
H	-1.3355422	-1.6437506	-1.8352161
H	-0.5953770	-3.1697278	-1.3186297
O	2.3439029	-3.2368631	0.1521623
H	3.2211826	-3.7629375	-1.6039126
C	3.2656847	-3.1694070	-0.6687516
C	4.5082644	-2.3154079	-0.5154555
C	4.4725750	-1.4619647	0.7589001
H	3.6538564	-0.7351102	0.7144304
H	5.4130322	-0.9142367	0.8818106
H	4.3103966	-2.0825714	1.6450598
C	4.7199349	-1.4722768	-1.7962758
H	5.3495957	-3.0290147	-0.4521259
H	4.7293515	-2.0990965	-2.6961679
H	5.6751552	-0.9397500	-1.7456678
H	3.9222063	-0.7284769	-1.9067875
