37
-0.00634157 (energy)
H	0.8119477	-1.6440898	-1.5224402
O	2.6726412	0.8467970	-1.1174805
C	1.6534683	0.3130819	-1.8393246
O	1.4344339	0.6202688	-3.0021172
C	3.0795858	-2.3957187	-0.0047776
H	3.0092726	-2.3313779	-1.0843347
H	3.8334500	-3.0788755	0.3763746
C	2.2991768	-1.6821322	0.8232053
C	2.5076191	-1.8387773	2.3152994
H	2.7675438	-0.8761197	2.7678840
H	3.3173478	-2.5379241	2.5517133
H	1.5986533	-2.2202211	2.7916752
N	1.3198526	-0.7801469	0.3904797
C	-0.5296002	0.7192740	0.3884456
C	-0.6186809	-0.1441417	-0.8576705
C	0.8072110	-0.6721555	-1.0180506
H	-0.9814963	0.4187803	-1.7227637
H	-1.3069404	-0.9792627	-0.6785835
C	0.3848592	-0.0874289	1.3002296
H	-1.5062774	0.9103283	0.8418987
H	-0.0700227	1.6855287	0.1486327
H	-0.2007997	-0.8240079	1.8623306
H	0.9124223	0.5653802	2.0027629
H	2.6317245	0.4194927	-0.2271537
O	4.8092298	1.3752343	1.2467797
H	5.6905114	2.0423706	-0.4445558
C	5.7213874	1.9433519	0.6548373
C	6.9730745	2.4855572	1.3176404
C	6.9049285	2.3674312	2.8353915
H	6.0618292	2.9365115	3.2426366
H	7.8242771	2.7417335	3.2975848
H	6.7763319	1.3231058	3.1401238
C	7.1759654	3.9342326	0.8894334
H	7.8117644	1.8831691	0.9496241
H	7.2528147	4.0128476	-0.2005975
H	8.0935609	4.3456087	1.3225818
H	6.3358125	4.5629877	1.2048857
