37
-0.00485008 (energy)
H	-2.2928411	0.5000037	0.4159210
O	-0.2921443	2.8634841	0.9077162
C	-0.9257945	1.7964935	1.4596604
O	-1.1983331	1.7316696	2.6495961
C	-2.5803500	2.4242250	-1.6395933
H	-3.0448440	2.4411876	-0.6605710
H	-3.1062193	2.9701394	-2.4178803
C	-1.4285360	1.7812677	-1.8920412
C	-0.8636164	1.8498199	-3.2957852
H	0.1351230	2.2986944	-3.2841761
H	-1.4840935	2.4555483	-3.9654565
H	-0.7965284	0.8477462	-3.7316744
N	-0.7022790	1.0714458	-0.9283979
C	0.8966824	-0.3698585	0.0888077
C	-0.4378214	-0.5782430	0.7830001
C	-1.2147230	0.6910157	0.4321517
H	-0.3206959	-0.7417485	1.8583837
H	-0.9423717	-1.4535571	0.3558531
C	0.4988426	0.2683579	-1.2351104
H	1.4525068	-1.3016217	-0.0486564
H	1.5228810	0.3184154	0.6689147
H	0.2491168	-0.5091491	-1.9662891
H	1.3099227	0.8877935	-1.6306912
H	-0.2110733	2.6656543	-0.0572893
O	2.6407844	-0.6987868	3.0702030
H	4.1319013	-0.7413051	4.4329600
C	3.0507962	-0.8157123	4.2205959
C	2.1772076	-1.1336846	5.4188244
C	0.6987055	-1.1542534	5.0503482
H	0.3685349	-0.1812324	4.6699079
H	0.0833196	-1.4073026	5.9199418
H	0.5011828	-1.8979451	4.2706547
C	2.4531899	-0.1170732	6.5204239
H	2.4720021	-2.1296223	5.7694131
H	3.5116308	-0.1242219	6.8030992
H	1.8636869	-0.3402555	7.4156921
H	2.2083189	0.8995721	6.1930549
