37
-0.00483368 (energy)
H	-1.3124814	-2.1060907	-1.5942364
O	0.0826983	0.1327029	0.1004514
C	-0.9209109	-0.7814193	0.0583410
O	-1.9703712	-0.6404264	0.6692261
C	0.2928665	-0.5028220	-3.2862220
H	-0.7210186	-0.2978889	-2.9628548
H	0.5883905	-0.0414462	-4.2243529
C	1.1439353	-1.2691626	-2.5846498
C	2.5450129	-1.4632515	-3.1265373
H	3.2865889	-1.1013495	-2.4066795
H	2.7087003	-0.9185575	-4.0629524
H	2.7349185	-2.5224020	-3.3284980
N	0.8230815	-1.8799592	-1.3665016
C	0.9301778	-3.2744544	0.5603238
C	-0.5045762	-3.2637582	0.0627357
C	-0.5639574	-2.0039237	-0.8015439
H	-1.2252118	-3.2694687	0.8858724
H	-0.6856832	-4.1498562	-0.5579340
C	1.7195036	-2.8163560	-0.6584732
H	1.2476503	-4.2586866	0.9160175
H	1.0521570	-2.5590674	1.3823411
H	1.9452543	-3.6736602	-1.3031193
H	2.6554263	-2.3335431	-0.3601847
H	0.7971854	-0.2167451	-0.4863526
O	5.0463677	-0.0963642	-0.4752401
H	4.7960154	-0.0047854	1.5275782
C	5.3364632	0.3472064	0.6312294
C	6.3677108	1.4305020	0.8822555
C	7.1092681	1.8109517	-0.3934862
H	7.6488399	0.9541769	-0.8121945
H	7.8335413	2.6091563	-0.2005498
H	6.4114374	2.1677616	-1.1588185
C	7.3369964	0.9558997	1.9585569
H	5.8223399	2.3060975	1.2532154
H	6.8043160	0.7098200	2.8837325
H	8.0747266	1.7310528	2.1903350
H	7.8740460	0.0553764	1.6402248
