37
-0.00466568 (energy)
H	2.1297798	-0.9967041	-1.7805713
O	-0.1341955	0.0628014	0.1121922
C	1.0868512	0.3142296	-0.4267445
O	1.9267920	1.0052956	0.1312463
C	0.4357075	-3.1403686	-1.0421612
H	1.2724481	-2.7458938	-0.4775534
H	0.1817770	-4.1775004	-0.8417402
C	-0.2570227	-2.4094838	-1.9308298
C	-1.4234479	-3.0642750	-2.6414854
H	-2.3505991	-2.5188337	-2.4365763
H	-1.5784647	-4.1002692	-2.3204804
H	-1.2536451	-3.0804604	-3.7229460
N	0.0170824	-1.0678979	-2.2222373
C	-0.0000148	1.0643164	-3.2815356
C	1.4301374	0.7452054	-2.8827117
C	1.2605773	-0.3313563	-1.8103532
H	1.9682400	1.6327397	-2.5368350
H	1.9689237	0.3312491	-3.7438446
C	-0.6689998	-0.3034593	-3.2836706
H	-0.0676407	1.5622920	-4.2528578
H	-0.4671073	1.7140944	-2.5318803
H	-0.5169631	-0.7938880	-4.2521058
H	-1.7424981	-0.2147249	-3.0893428
H	-0.6017386	-0.5256920	-0.5296986
O	-0.6053089	1.5300690	5.2663046
H	-0.4709356	2.7403079	3.6539741
C	-0.0121061	1.9547685	4.2799346
C	1.3207478	1.4288451	3.7830239
C	1.9121075	0.3977576	4.7366057
H	2.0937608	0.8284399	5.7275811
H	2.8621225	0.0112864	4.3531499
H	1.2311681	-0.4506708	4.8650785
C	2.2750603	2.6002519	3.5823247
H	1.1310544	0.9522186	2.8142351
H	1.8598305	3.3262854	2.8747137
H	3.2375352	2.2579692	3.1882259
H	2.4585506	3.1289269	4.5244149
