37
-0.00460411 (energy)
H	-1.9433342	0.2590601	-0.9055205
O	0.5463542	-1.0026068	-2.3339246
C	-0.4984599	-0.1428538	-2.4514499
O	-1.0310588	0.1087045	-3.5226564
C	-1.1462007	-2.0791605	0.4756857
H	-1.7836509	-2.0235894	-0.3990122
H	-1.2871419	-2.9541142	1.1040830
C	-0.2330402	-1.1413597	0.7764631
C	0.6172594	-1.3414847	2.0139087
H	1.6787646	-1.3736900	1.7469393
H	0.3842959	-2.2780561	2.5324840
H	0.4557867	-0.5259887	2.7263304
N	0.0000000	0.0000000	0.0000000
C	0.7935719	2.1313890	-0.7043913
C	-0.6556949	1.9986804	-1.1382595
C	-0.8916612	0.4883778	-1.1067289
H	-0.8351771	2.4537676	-2.1168218
H	-1.3060329	2.4924243	-0.4058131
C	0.9195796	1.0861082	0.3955477
H	1.0399270	3.1372740	-0.3529308
H	1.4631146	1.8878323	-1.5379155
H	0.6019896	1.5108574	1.3548324
H	1.9514230	0.7314628	0.4825038
H	0.7695220	-1.0335970	-1.3715418
O	3.4335966	-3.2418302	-0.1408064
H	2.1558678	-3.4438417	-1.6928838
C	2.7592602	-3.9261789	-0.9037757
C	2.6206328	-5.4337944	-0.8149319
C	3.5330224	-6.0228942	0.2540268
H	4.5870101	-5.8163077	0.0373487
H	3.4049106	-7.1082324	0.3215178
H	3.3082504	-5.5958911	1.2374700
C	2.9134683	-6.0424426	-2.1813070
H	1.5776503	-5.6400254	-0.5477907
H	2.2374734	-5.6380123	-2.9427009
H	2.7862604	-7.1297470	-2.1608954
H	3.9377931	-5.8228467	-2.5026110
