37
-0.00436219 (energy)
H	-2.0265070	-0.0725054	-1.2522487
O	-1.9351263	-1.9405854	1.2642204
C	-1.6834942	-1.8375321	-0.0664506
O	-1.7184166	-2.7973604	-0.8227155
C	-3.6942607	0.9889126	0.7731939
H	-3.9515441	0.2224237	0.0515103
H	-4.5295475	1.5594153	1.1695704
C	-2.4330917	1.2286369	1.1678893
C	-2.2004177	2.3107502	2.2019224
H	-1.7181907	1.8919009	3.0913748
H	-3.1339183	2.7812855	2.5298426
H	-1.5633438	3.1016206	1.7928833
N	-1.3198527	0.5200186	0.7004885
C	0.9309398	-0.1194922	0.2603729
C	0.1180477	-0.3491693	-1.0016423
C	-1.3197238	-0.4042612	-0.4844706
H	0.4313068	-1.2523025	-1.5337338
H	0.2379553	0.5062902	-1.6776685
C	0.0743974	0.8640981	1.0460196
H	1.9312093	0.2717263	0.0543898
H	1.0396941	-1.0575073	0.8177507
H	0.2936622	1.8898629	0.7278500
H	0.2594500	0.7729596	2.1209545
H	-1.8555044	-1.0259551	1.6303577
O	3.3626906	-1.0430680	-1.9575104
H	3.8959018	-2.7829508	-1.0795369
C	3.7440170	-2.2079799	-2.0100006
C	4.1056135	-2.9397539	-3.2881907
C	3.8058096	-2.1000056	-4.5239522
H	2.7397361	-1.8563386	-4.5920037
H	4.0930771	-2.6324048	-5.4366161
H	4.3594413	-1.1551247	-4.4973709
C	3.3559652	-4.2661359	-3.3320629
H	5.1826647	-3.1391084	-3.2442978
H	3.5950350	-4.8797368	-2.4565098
H	3.6231515	-4.8373684	-4.2271238
H	2.2714706	-4.1094356	-3.3361367
