37
-0.00430235 (energy)
H	-0.7244276	3.4760802	-0.5980030
O	2.3290057	3.0695488	-0.0132234
C	1.3102880	3.9646879	-0.0878177
O	1.4833462	5.1423268	-0.3664640
C	0.1158505	0.9870512	-1.6511390
H	0.2022438	1.9581884	-2.1243788
H	0.0847339	0.1369626	-2.3269147
C	0.0555439	0.8247954	-0.3192848
C	-0.0395094	-0.5850838	0.2261840
H	0.8099137	-0.7984983	0.8834799
H	-0.0335729	-1.3401936	-0.5676248
H	-0.9672606	-0.7155134	0.7926802
N	0.1017319	1.8800996	0.5994668
C	-0.0266504	3.1165604	2.6300887
C	-0.6253465	3.9638960	1.5211194
C	-0.0492700	3.3344613	0.2524051
H	-0.3830880	5.0243808	1.6376751
H	-1.7171996	3.8588596	1.5260638
C	-0.0838879	1.7080200	2.0546814
H	-0.5746808	3.2038309	3.5724615
H	1.0140243	3.4101008	2.8122972
H	-1.0647434	1.2610488	2.2537835
H	0.6956148	1.0750146	2.4902446
H	1.9149754	2.2004148	0.2106732
O	3.3101177	-0.8750645	2.1411076
H	5.2865709	-0.5480766	2.4038918
C	4.3171167	-0.8451811	2.8412825
C	4.3662038	-1.2617540	4.2987024
C	2.9801595	-1.5929166	4.8384973
H	2.3120361	-0.7263823	4.7815172
H	3.0349166	-1.9133967	5.8840693
H	2.5201998	-2.4029701	4.2620730
C	5.0201679	-0.1512708	5.1125479
H	4.9934598	-2.1593298	4.3498482
H	6.0274245	0.0654385	4.7400900
H	5.1044946	-0.4360031	6.1664196
H	4.4420197	0.7776758	5.0533626
