37
-0.0042989 (energy)
H	2.2928412	-0.6121031	0.2198267
O	0.2921445	-3.0012522	-0.1263945
C	0.9257946	-2.1873848	0.7571955
O	1.1983331	-2.5334521	1.8975405
C	2.5803502	-1.7172527	-2.3698472
H	3.0448442	-2.0680375	-1.4556686
H	3.1062195	-1.9640547	-3.2879113
C	1.4285361	-1.0267283	-2.3871663
C	0.8636165	-0.6110378	-3.7297006
H	-0.1351228	-1.0368124	-3.8723156
H	1.4840937	-0.9511953	-4.5661570
H	0.7965284	0.4796864	-3.7965732
N	0.7022790	-0.6892991	-1.2388646
C	-0.8966824	0.3171793	0.2099509
C	0.4378214	0.2755691	0.9335501
C	1.2147230	-0.7971468	0.1697487
H	0.3206958	0.0614113	2.0000023
H	0.9423716	1.2441882	0.8315382
C	-0.4988426	0.1702585	-1.2524079
H	-1.4525069	1.2397658	0.3994585
H	-1.5228810	-0.5279949	0.5196697
H	-0.2491169	1.1509539	-1.6735683
H	-1.3099226	-0.2765241	-1.8359917
H	0.2110734	-2.4853017	-0.9655414
O	4.3851151	1.1536566	-0.3580302
H	3.9248407	1.1477821	-2.3253779
C	4.6467671	1.4043951	-1.5301451
C	5.9558868	1.9986378	-2.0129456
C	6.8647151	2.3818045	-0.8513172
H	6.3953932	3.1352209	-0.2089637
H	7.8139624	2.7878222	-1.2160169
H	7.0893943	1.5097617	-0.2275584
C	5.6596931	3.2040374	-2.8975175
H	6.4505349	1.2269156	-2.6141746
H	5.0293056	2.9201177	-3.7473732
H	6.5847274	3.6358115	-3.2933859
H	5.1277653	3.9838546	-2.3410662
