37
-0.00428937 (energy)
H	-2.6886313	0.4216503	-2.3577551
O	-0.1574947	2.0313596	-3.2703739
C	-1.4961945	1.8627977	-3.4255953
O	-2.0779938	2.1146752	-4.4708196
C	-0.3517805	-0.9915998	-1.6145996
H	-0.8475283	-1.0116396	-2.5781138
H	0.2379370	-1.8711953	-1.3720368
C	-0.4439265	0.0450247	-0.7656484
C	0.3148587	-0.0322414	0.5430173
H	1.0272841	0.7956894	0.6210171
H	0.8860116	-0.9622415	0.6391546
H	-0.3765068	0.0143427	1.3906586
N	-1.1791254	1.2071411	-1.0280846
C	-2.2868349	3.2947512	-0.7389361
C	-3.1580631	2.4141265	-1.6173945
C	-2.1767043	1.3650409	-2.1408853
H	-3.6568025	2.9853039	-2.4060120
H	-3.9285326	1.9301895	-1.0047102
C	-1.3748176	2.2921441	-0.0451355
H	-2.8670812	3.8905386	-0.0287451
H	-1.6957872	3.9810690	-1.3569979
H	-1.8654774	1.8968168	0.8517880
H	-0.4255945	2.7572952	0.2388460
H	0.0505297	1.7424966	-2.3482954
O	3.5261856	1.5894406	-0.3567189
H	4.6823191	1.0599822	-1.9268696
C	4.2280324	1.8661167	-1.3242139
C	4.5988870	3.2751025	-1.7452138
C	3.8802458	4.3234197	-0.9045284
H	2.7925547	4.2405634	-1.0073881
H	4.1754141	5.3340744	-1.2051603
H	4.1215041	4.2044465	0.1573823
C	4.2851654	3.4514120	-3.2263215
H	5.6800004	3.3757624	-1.5943174
H	4.8250456	2.7144038	-3.8309718
H	4.5757135	4.4488800	-3.5719636
H	3.2157874	3.3176775	-3.4244268
