37
-0.00425441 (energy)
H	0.6942311	-2.3416861	0.2427458
O	0.8647101	0.1853768	-1.6053829
C	0.5056777	-0.2899259	-0.3848064
O	-0.3793789	0.2175136	0.2886966
C	0.9919801	-3.1593692	-2.4504248
H	0.0697628	-2.8912614	-1.9482687
H	0.8864708	-3.8298601	-3.2987180
C	2.1942123	-2.6990644	-2.0675977
C	3.4102488	-3.1252247	-2.8638223
H	3.9214808	-2.2500175	-3.2782587
H	3.1500039	-3.7776378	-3.7046481
H	4.1108190	-3.6767573	-2.2284757
N	2.3901700	-1.8261358	-0.9907965
C	3.4436945	-0.5367284	0.7110430
C	2.1781876	-1.1431753	1.2915099
C	1.3580505	-1.4925549	0.0493355
H	1.6712871	-0.4581450	1.9775767
H	2.4275592	-2.0583148	1.8424490
C	3.7217956	-1.4168298	-0.4999224
H	4.2751131	-0.5313920	1.4214896
H	3.2587784	0.4967523	0.3946673
H	4.2941741	-2.3013116	-0.1973052
H	4.2832702	-0.8678632	-1.2624299
H	1.5827882	-0.4103203	-1.9316552
O	-5.3679375	2.7116097	1.9851527
H	-4.8650459	2.6996332	0.0282929
C	-4.5431764	2.6194502	1.0815706
C	-3.0694780	2.3257325	1.2864074
C	-2.6996426	2.2956022	2.7644061
H	-2.8978181	3.2599877	3.2452434
H	-1.6384717	2.0601830	2.8963940
H	-3.2815595	1.5354063	3.2968433
C	-2.2452427	3.3656660	0.5365002
H	-2.8806140	1.3377633	0.8505686
H	-2.4929391	3.3657651	-0.5306925
H	-1.1741118	3.1606796	0.6339078
H	-2.4374436	4.3748883	0.9175895
