37
-0.00423722 (energy)
H	0.5543071	-0.4649049	-2.0347566
O	2.3933405	-0.8967314	0.4676766
C	2.3276502	-0.4477264	-0.8124419
O	3.2900978	-0.4543513	-1.5661508
C	-0.6674945	-2.3115883	-0.2719778
H	0.0832226	-2.5260264	-1.0236208
H	-1.3108193	-3.1439270	-0.0006160
C	-0.8051339	-1.1049058	0.3014089
C	-1.8761268	-0.9330671	1.3586584
H	-1.4288848	-0.6216452	2.3084448
H	-2.4272775	-1.8608252	1.5480154
H	-2.6057648	-0.1788278	1.0465629
N	0.0000000	0.0000000	0.0000000
C	0.8314923	2.2283101	-0.1095332
C	1.0071065	1.5896888	-1.4761165
C	0.9350798	0.0928621	-1.1727846
H	1.9396354	1.8987590	-1.9575392
H	0.1728575	1.8781076	-2.1273028
C	-0.2298552	1.3538365	0.5440671
H	0.5281503	3.2773847	-0.1682352
H	1.7686183	2.1754558	0.4573629
H	-1.2297151	1.7029711	0.2614235
H	-0.1363124	1.3732930	1.6344371
H	1.4843312	-0.7935273	0.8418368
O	5.8241039	-6.3989392	0.9080042
H	7.3002744	-5.0201237	0.9541853
C	6.2177298	-5.2372471	0.9347475
C	5.3134116	-4.0224246	1.0149351
C	3.8419093	-4.4062238	0.9172349
H	3.6206718	-4.9005401	-0.0352475
H	3.2016688	-3.5217698	0.9994551
H	3.5648689	-5.0978108	1.7203354
C	5.6980225	-3.0414243	-0.0863820
H	5.4970045	-3.5556052	1.9896563
H	6.7490382	-2.7453904	0.0029683
H	5.0867559	-2.1345513	-0.0338104
H	5.5662985	-3.4868814	-1.0788117
