37
-0.00423083 (energy)
H	-1.7573423	1.6446850	-0.4807655
O	-1.0751726	-1.4154139	-0.4471575
C	-0.6724391	-0.1719108	-0.0781999
O	0.5044898	0.1289741	0.0586686
C	-3.3061796	0.3100570	-2.4378805
H	-2.2890827	0.6688701	-2.5441548
H	-3.8712335	0.2212038	-3.3615205
C	-3.8478665	-0.0135725	-1.2522841
C	-5.2725370	-0.5276469	-1.2329831
H	-5.3101587	-1.5328131	-0.8001683
H	-5.7065930	-0.5899790	-2.2370091
H	-5.9120304	0.1364265	-0.6424690
N	-3.1659680	0.0703725	-0.0325004
C	-2.7082790	0.1023782	2.3037871
C	-1.8898771	1.1994761	1.6458950
C	-1.8553321	0.7750571	0.1774389
H	-0.8997351	1.3020673	2.0997630
H	-2.4132695	2.1584528	1.7439992
C	-3.8004400	-0.1723961	1.2790728
H	-3.1138788	0.4009662	3.2745361
H	-2.0929981	-0.7930637	2.4520544
H	-4.6340129	0.5246548	1.4232207
H	-4.1700261	-1.1989625	1.3662688
H	-2.0617212	-1.3810080	-0.4969867
O	4.7021368	3.9506553	-1.4416295
H	4.1959291	2.8077960	-3.0290709
C	4.1625419	2.9663375	-1.9367463
C	3.3622783	1.9394683	-1.1588433
C	3.4217966	2.1959183	0.3421087
H	4.4503398	2.1418233	0.7158600
H	2.8213645	1.4605869	0.8877238
H	3.0347317	3.1918827	0.5834591
C	3.8776483	0.5455531	-1.4973408
H	2.3227843	2.0278215	-1.4955243
H	3.8075412	0.3532495	-2.5736112
H	3.2957676	-0.2235167	-0.9789050
H	4.9293071	0.4307763	-1.2117885
