37
-0.00415166 (energy)
H	0.3368786	-0.3276040	-2.9118729
O	-0.0212264	0.0206420	0.1834745
C	0.6438952	0.4412344	-0.9234759
O	1.7762946	0.8997799	-0.8806507
C	-0.9861164	-2.5945409	-1.8530484
H	0.0826239	-2.4169631	-1.8811105
H	-1.2875892	-3.6376740	-1.8172840
C	-1.8928722	-1.6037912	-1.8559809
C	-3.3596114	-1.9760351	-1.7893371
H	-3.8261674	-1.5335709	-0.9029657
H	-3.5122264	-3.0593413	-1.7300532
H	-3.8863200	-1.6213629	-2.6812103
N	-1.5639694	-0.2434456	-1.8904418
C	-1.7481474	2.1224818	-2.0833380
C	-0.4818439	1.6862097	-2.7991380
C	-0.2006838	0.3078044	-2.2002757
H	0.3344052	2.4019223	-2.6635093
H	-0.6802603	1.5917429	-3.8738042
C	-2.5626097	0.8379233	-2.0132205
H	-2.2771744	2.9226376	-2.6086006
H	-1.5103008	2.4766761	-1.0732165
H	-3.1389187	0.7082955	-2.9365660
H	-3.2480708	0.8548423	-1.1600543
H	-0.8964799	-0.3128212	-0.1322442
O	5.9403772	-3.1498322	2.0858892
H	5.8412022	-1.5329588	3.2934607
C	5.4773080	-2.0555360	2.3912871
C	4.3551721	-1.3566531	1.6480584
C	3.9587033	-2.1109930	0.3847493
H	4.7987684	-2.1879908	-0.3144497
H	3.1331070	-1.6066188	-0.1280120
H	3.6339184	-3.1294401	0.6241122
C	4.7851954	0.0689718	1.3226966
H	3.4969098	-1.3245262	2.3292792
H	5.0427277	0.6177841	2.2352402
H	3.9818203	0.6143455	0.8167470
H	5.6682304	0.0791620	0.6739706
