37
-0.00409299 (energy)
H	1.5542937	1.5756986	1.8044572
O	3.1760346	1.1568662	-0.8460571
C	3.0385232	1.9053893	0.2788553
O	3.3626674	3.0828148	0.3338659
C	0.0615197	-0.0471865	0.0301129
H	0.1079502	1.0355170	0.0412690
H	-0.8404549	-0.4736758	-0.3998176
C	1.0459758	-0.8268010	0.5063975
C	0.8772760	-2.3292127	0.4134990
H	1.6875046	-2.7688103	-0.1775905
H	-0.0658111	-2.6136876	-0.0661041
H	0.8832537	-2.7783857	1.4119278
N	2.2334343	-0.3347710	1.0611529
C	4.3169648	-0.2246988	2.2081173
C	3.5053115	1.0032281	2.5818043
C	2.4745037	1.0949658	1.4563232
H	4.1312117	1.8949510	2.6817118
H	2.9973508	0.8316536	3.5387465
C	3.2596772	-1.1904869	1.6906698
H	4.8776469	-0.6348006	3.0527900
H	5.0300864	0.0196159	1.4117896
H	2.8184303	-1.7463773	2.5260077
H	3.6915608	-1.8975972	0.9754725
H	2.8284039	0.2589965	-0.6226123
O	4.4577601	9.4853832	0.6627638
H	3.1863640	9.3510033	-0.9017930
C	3.7518743	8.8380637	-0.1039746
C	3.5230437	7.3418423	-0.0092480
C	4.3877624	6.7055355	1.0722053
H	5.4543375	6.8480218	0.8657285
H	4.1947280	5.6300993	1.1436303
H	4.1786169	7.1505305	2.0511088
C	3.7932901	6.7093783	-1.3694475
H	2.4669545	7.1993354	0.2478035
H	3.1503964	7.1490100	-2.1399443
H	3.6015268	5.6316667	-1.3450794
H	4.8321079	6.8660352	-1.6809216
