37
-0.00407044 (energy)
H	-0.6937186	-0.6456235	-2.2641336
O	0.2496402	1.7519040	-0.4773414
C	0.1023040	0.4042999	-0.5602842
O	-0.0767524	-0.3033215	0.4203468
C	-1.7863778	1.7656882	-3.2651829
H	-2.1821997	1.1536411	-2.4631539
H	-2.5130811	2.3810664	-3.7881586
C	-0.4861381	1.7801288	-3.6012897
C	-0.0477326	2.6962084	-4.7250911
H	0.6978985	3.4127875	-4.3650189
H	-0.8805070	3.2749053	-5.1397657
H	0.3861099	2.1159591	-5.5459100
N	0.4959849	1.0179225	-2.9575657
C	2.5677670	-0.0451048	-2.4611439
C	1.4472999	-1.0190799	-2.1415294
C	0.2253220	-0.1106589	-2.0028579
H	1.6608253	-1.6122904	-1.2474318
H	1.3059669	-1.7071120	-2.9840477
C	1.9016818	0.9463371	-3.4054580
H	3.4359743	-0.5322534	-2.9138272
H	2.8997400	0.4642328	-1.5485986
H	1.9450435	0.5713792	-4.4345493
H	2.3923245	1.9235604	-3.3570848
H	0.3632510	2.0733107	-1.4050995
O	1.2378399	5.1936281	1.7895073
H	0.5218104	3.3048570	1.8363006
C	1.2968822	4.0239648	2.1550025
C	2.3450027	3.4680091	3.0996568
C	3.4087807	4.5057062	3.4368915
H	3.9402746	4.8390141	2.5385945
H	4.1448182	4.0967293	4.1368297
H	2.9582307	5.3897571	3.9010822
C	2.9698228	2.2258697	2.4752563
H	1.8214396	3.1811680	4.0190653
H	2.2064255	1.4702181	2.2596900
H	3.7070241	1.7775246	3.1493113
H	3.4700119	2.4652355	1.5301559
