37
-0.00406446 (energy)
H	0.7244278	-3.4709758	0.6269509
O	-2.3290055	-2.8889550	1.0374221
C	-1.3102878	-3.7556232	1.2734820
O	-1.4833459	-4.9575445	1.4144166
C	-0.1158505	-1.4922477	-1.2139715
H	-0.2022437	-2.5666758	-1.3265228
H	-0.0847339	-0.9245548	-2.1397405
C	-0.0555439	-0.8842560	-0.0179328
C	0.0395094	0.6271584	0.0124329
H	-0.8099137	1.0525109	0.5570969
H	0.0335729	1.0652308	-0.9917662
H	0.9672606	0.9434753	0.5001556
N	-0.1017318	-1.5616858	1.2063467
C	0.0266506	-2.0290649	3.5374017
C	0.6253467	-3.2045899	2.7851175
C	0.0492702	-3.0470409	1.3776366
H	0.3830883	-4.1612551	3.2573513
H	1.7171998	-3.1041969	2.7538390
C	0.0838880	-0.9022710	2.5149463
H	0.5746810	-1.7887618	4.4527907
H	-1.0140241	-2.2425837	3.8090184
H	1.0647435	-0.4141585	2.5491679
H	-0.6956148	-0.1584691	2.7077412
H	-1.9149753	-1.9956590	0.9505546
O	3.4237509	0.1177768	-0.5500621
H	3.1039310	-1.7027542	-1.3659823
C	3.7544413	-0.8150637	-1.2750707
C	5.0631032	-0.8920420	-2.0376279
C	5.8677392	0.3957726	-1.9101116
H	5.3174764	1.2521037	-2.3156052
H	6.8189207	0.3163293	-2.4466462
H	6.0910703	0.6140026	-0.8601052
C	4.7702936	-1.2127038	-3.4986635
H	5.6366147	-1.7166971	-1.5986100
H	4.2161841	-2.1534553	-3.5892341
H	5.6982642	-1.3116084	-4.0713044
H	4.1623896	-0.4283140	-3.9632980
