31
-0.00339244 (energy)
C	-1.5626431	1.2440684	-1.1940951
O	-1.8003009	2.2643252	-1.8448159
O	-2.5346067	0.3082812	-0.9088885
H	-3.4043265	0.6092670	-1.2513313
N	-0.2042842	0.3212010	0.6943310
C	-0.9184991	2.4310163	1.6450220
H	-0.9379194	2.9579260	0.6997239
H	-1.1807788	3.0078184	2.5226248
C	-0.5880160	0.4489772	3.1269439
H	0.4137286	0.1001988	3.4098879
H	-0.9265073	1.1504393	3.8920722
H	-1.2560525	-0.4212776	3.1451660
C	0.9662133	-1.3342678	-0.4883150
C	0.0806139	-1.1216432	0.7504789
C	-0.1903077	0.8288231	-0.6755471
C	0.3739524	-0.3556194	-1.5273642
H	2.0015780	-1.0624981	-0.2531438
H	0.9562167	-2.3698526	-0.8414573
H	0.5961504	-1.3846635	1.6769301
H	-0.8398945	-1.7234873	0.6861757
H	0.4401738	1.7231334	-0.7501049
H	-0.4396216	-0.8405989	-2.0765992
H	1.1103882	-0.0063176	-2.2553540
C	-0.5855020	1.1241568	1.7727153
C	3.7308082	2.5306308	-2.5518642
H	3.8158194	3.2316482	-1.6998485
O	3.5735938	1.3218569	-2.3465320
C	3.8202538	3.1569239	-3.9152550
H	4.7777404	3.6830204	-4.0270087
H	3.7268295	2.3955768	-4.6925576
H	3.0293846	3.9087674	-4.0380169
