31
-0.00317104 (energy)
C	0.1741293	0.2735785	-0.3665370
O	1.0965073	-0.1900027	0.3081139
O	-1.1503777	0.0222606	-0.0762366
H	-1.2183660	-0.5952626	0.6842335
N	-0.5155221	0.8989119	-2.6895341
C	0.5606507	-1.2315712	-3.0995717
H	1.2789730	-1.1298111	-2.2962925
H	0.6278289	-2.1340988	-3.6933806
C	-1.3634202	-0.5174949	-4.5214847
H	-1.2517128	0.2444690	-5.3038712
H	-1.1960182	-1.4943353	-4.9795306
H	-2.4030709	-0.4800574	-4.1726681
C	-0.9267456	3.1822077	-2.3335166
C	-1.5725870	1.9030038	-2.8908603
C	0.3369767	1.2231510	-1.5482382
C	-0.0878511	2.6722212	-1.1400683
H	-0.2772960	3.6297399	-3.0944861
H	-1.6654549	3.9306531	-2.0312198
H	-1.8292037	1.9968182	-3.9485069
H	-2.4895551	1.6490516	-2.3355544
H	1.3958031	1.1710995	-1.8293683
H	-0.7048887	2.6392017	-0.2362203
H	0.7833782	3.2977687	-0.9303817
C	-0.3846689	-0.3048949	-3.3871761
C	4.2333260	-3.3685096	-1.2213653
H	4.1023859	-3.0014879	-2.2570933
O	4.2972311	-4.5825180	-0.9975083
C	4.3217231	-2.3032446	-0.1647318
H	3.4134250	-1.6860275	-0.1739226
H	4.4497770	-2.7532451	0.8220197
H	5.1638505	-1.6309099	-0.3759208
