31
-0.00513633 (energy)
C	-0.2922558	0.2502526	-0.3024497
O	0.8552745	0.1954067	-0.7507897
O	-0.6438236	-0.3320321	0.8971746
H	0.1239603	-0.8113699	1.2779834
N	-2.7127536	0.2614390	-0.9380919
C	-1.8773098	-1.4915659	-2.3852423
H	-0.8945830	-1.0539074	-2.5048363
H	-2.0596340	-2.4168308	-2.9165808
C	-4.2080029	-1.6176582	-1.4988107
H	-5.0145457	-0.9929004	-1.9042268
H	-4.2077202	-2.5613868	-2.0478308
H	-4.4550510	-1.8342993	-0.4519190
C	-3.3049471	2.3465947	-0.0376888
C	-3.7025351	0.8613497	-0.0289390
C	-1.4537593	1.0026251	-0.9423482
C	-1.7632173	2.3066992	-0.1358048
H	-3.7320557	2.8380316	-0.9192853
H	-3.6499815	2.8810383	0.8525733
H	-4.7193414	0.7037071	-0.3957130
H	-3.6338924	0.4398825	0.9866104
H	-1.1377115	1.2220637	-1.9693912
H	-1.3264065	2.2380911	0.8658219
H	-1.3422463	3.1874116	-0.6271780
C	-2.8585012	-0.9453089	-1.6276533
C	2.8725837	2.0353631	2.1949645
H	3.4169040	2.8116692	2.7656195
O	1.6373499	1.9975448	2.2228819
C	3.7352822	1.0784770	1.4208854
H	4.4219113	0.5552828	2.0997486
H	3.1178651	0.3504541	0.8904560
H	4.3577041	1.6279360	0.7022067
