31
-0.00293812 (energy)
C	-2.4167233	0.6372492	0.1278204
O	-3.5647038	0.2379462	-0.0808431
O	-2.0465283	1.9514782	-0.0658587
H	-2.8014209	2.4655406	-0.4266206
N	0.0000000	0.0000000	0.0000000
C	-0.8016134	-0.8543234	-2.1196189
H	-1.7946262	-1.0871704	-1.7572553
H	-0.6005562	-1.0900841	-3.1567644
C	1.5353199	0.0038638	-1.9297565
H	2.3255225	-0.5771592	-1.4366153
H	1.5541628	-0.2413006	-2.9935168
H	1.7919692	1.0651779	-1.8216273
C	0.5483681	0.2365076	2.2699448
C	0.9798751	0.6799234	0.8623619
C	-1.2756320	-0.2094312	0.6806930
C	-0.9924709	0.1716654	2.1711530
H	0.9601478	-0.7556951	2.4870064
H	0.8850846	0.9248966	3.0509621
H	1.9983619	0.3649817	0.6241062
H	0.9254654	1.7754007	0.7591335
H	-1.6012369	-1.2518504	0.5796954
H	-1.4230858	1.1535152	2.3932083
H	-1.4356923	-0.5536023	2.8580737
C	0.1702198	-0.3031974	-1.3535414
C	4.7603167	2.2073131	2.4530331
H	5.0860429	2.8080519	1.5826320
O	4.1031267	1.1744069	2.2820997
C	5.1725307	2.7402727	3.7965776
H	4.7742312	3.7537208	3.9391521
H	4.8104477	2.0879957	4.5940782
H	6.2663907	2.8189911	3.8521387
