31
-0.00292849 (energy)
C	1.7710735	-1.5387973	0.8708488
O	1.9731312	-2.5176713	1.5932206
O	2.6777144	-0.5058069	0.7582134
H	3.4393357	-0.6576153	1.3591788
N	0.0000000	0.0000000	0.0000000
C	-0.6465750	-0.1553681	2.3287418
H	-0.2941629	-1.1708207	2.4562605
H	-1.1041462	0.3071284	3.1938451
C	-1.0545684	1.9585908	1.0644199
H	-1.8710456	2.0472834	0.3359319
H	-1.4330551	2.2907039	2.0331797
H	-0.2614707	2.6506932	0.7546801
C	0.2688885	-0.4143828	-2.2946196
C	0.2196330	0.7240949	-1.2623657
C	0.5615638	-1.3482097	-0.0376597
C	0.9691494	-1.5620757	-1.5326584
H	-0.7505773	-0.7053651	-2.5724023
H	0.8050878	-0.1343739	-3.2063929
H	-0.5940441	1.4257167	-1.4596622
H	1.1656121	1.2886186	-1.2512507
H	-0.1798687	-2.0853061	0.2937364
H	2.0552392	-1.4737385	-1.6392997
H	0.6755037	-2.5533331	-1.8869176
C	-0.5472480	0.5367601	1.1684974
C	3.2474990	1.2403748	4.0801276
H	3.0068581	0.1736157	4.2495383
O	3.4580442	1.6537956	2.9343675
C	3.2918574	2.0966517	5.3145912
H	4.0398819	1.7068226	6.0178261
H	3.5349894	3.1291857	5.0550975
H	2.3236475	2.0641748	5.8316290
