31
-0.0028543 (energy)
C	-3.5899161	0.2064328	0.1150827
O	-4.6852113	-0.0077936	-0.4095867
O	-3.3140564	1.3735985	0.7958025
H	-4.0813868	1.9842002	0.7444050
N	-1.1267687	-0.1669743	-0.1225063
C	-1.7106664	0.4320700	-2.3952681
H	-2.7041940	0.0046680	-2.3524921
H	-1.4210126	0.8826166	-3.3358989
C	0.5314115	1.0474035	-1.4851901
H	1.3301948	0.3037766	-1.3661924
H	0.6424368	1.5027246	-2.4712950
H	0.6940591	1.8276126	-0.7310231
C	-0.7553746	-1.3526161	1.8688784
C	-0.2657874	-0.1330747	1.0706748
C	-2.4249498	-0.7762959	0.1565896
C	-2.2756883	-1.3776614	1.5928926
H	-0.2810580	-2.2617736	1.4820960
H	-0.5290990	-1.2765585	2.9367079
H	0.7885728	-0.2146686	0.7969296
H	-0.4007831	0.7962953	1.6466388
H	-2.6581726	-1.5474126	-0.5876167
H	-2.7978767	-0.7450515	2.3180760
H	-2.7051110	-2.3809566	1.6504548
C	-0.8407716	0.4225380	-1.3568720
C	4.3676333	-0.1619976	1.0514833
H	3.8071143	-0.2664223	1.9999013
O	3.7595650	-0.0202823	-0.0153728
C	5.8647010	-0.2066487	1.1774699
H	6.1772069	-1.1563276	1.6318893
H	6.3342476	-0.0964699	0.1976927
H	6.2114602	0.5933089	1.8450321
