31
-0.00274751 (energy)
C	1.7710735	-1.1248281	-1.3641982
O	1.9731312	-2.0062051	-2.2027623
O	2.6777144	-0.8345269	-0.3664601
H	3.4393357	-1.4527236	-0.4116056
N	0.0000000	0.0000000	0.0000000
C	-0.6465750	-2.3203424	0.2513742
H	-0.2941629	-2.6222553	-0.7265081
H	-1.1041462	-3.0919911	0.8570678
C	-1.0545684	-0.7081432	2.1136700
H	-1.8710456	0.0246787	2.0745145
H	-1.4330551	-1.6045145	2.6089610
H	-0.2614707	-0.2829267	2.7414720
C	0.2688885	2.1878023	-0.8065440
C	0.2196330	1.3689253	0.4938867
C	0.5615638	-0.1970266	-1.3342669
C	0.9691494	1.2381223	-1.8044876
H	-0.7505773	2.4108363	-1.1413420
H	0.8050878	3.1343468	-0.6891168
H	-0.5940441	1.6850598	1.1505891
H	1.1656121	1.4560077	1.0517641
H	-0.1798687	-0.6513835	-2.0026189
H	2.0552392	1.3584830	-1.7360106
H	0.6755037	1.4148694	-2.8422020
C	-0.5472480	-1.0575378	0.7315129
C	5.7223611	0.4152882	-2.9227277
H	6.1790928	-0.5157031	-2.5364193
O	4.7467449	0.9116028	-2.3483960
C	6.3690238	0.9906452	-4.1514953
H	6.3445661	0.2580285	-4.9692492
H	5.8564390	1.9038064	-4.4612857
H	7.4267301	1.2099176	-3.9540355
