31
-0.00268405 (energy)
C	-3.4497840	-0.9203654	-0.4418981
O	-4.3757075	-1.2508725	-1.1863935
O	-3.6241190	-0.0409051	0.6059142
H	-4.5477866	0.2922301	0.6173701
N	-0.9952995	-0.4390525	-0.3593158
C	-1.6107744	0.7180466	-2.3958690
H	-2.4029661	0.0291039	-2.6592881
H	-1.4344787	1.5342889	-3.0845971
C	0.2347798	1.6092025	-0.9698390
H	1.2287946	1.1434891	-0.9542937
H	0.2443122	2.3927417	-1.7301167
H	0.0800343	2.0856256	0.0063900
C	-0.3652210	-2.0813565	1.1947537
C	-0.2685243	-0.5728331	0.9134842
C	-2.0265321	-1.4627941	-0.5108210
C	-1.7690215	-2.4570217	0.6690457
H	0.4096885	-2.6126363	0.6304831
H	-0.2416291	-2.3216789	2.2550440
H	0.7659910	-0.2369008	0.8125037
H	-0.7426202	0.0104873	1.7188769
H	-1.9417599	-1.9555421	-1.4869715
H	-2.5158658	-2.3043762	1.4549781
H	-1.8380314	-3.4956108	0.3360458
C	-0.8518016	0.6026712	-1.2797493
C	4.5795064	1.7744217	-2.4882036
H	5.6843456	1.8233118	-2.4491778
O	3.9523411	1.2027331	-1.5894000
C	3.9451373	2.4364921	-3.6791346
H	4.3192606	1.9833035	-4.6068731
H	2.8581738	2.3404309	-3.6360152
H	4.2207998	3.4989197	-3.7118627
