31
-0.00500039 (energy)
C	1.5626431	0.7606374	1.5475787
O	1.8003010	1.4968056	2.5080045
O	2.5346067	-0.0211687	0.9595142
H	3.4043265	0.1445432	1.3842483
N	0.2042842	0.5393054	-0.5426005
C	0.9184993	2.8470386	-0.7143588
H	0.9379196	3.0188609	0.3541446
H	1.1807790	3.6892130	-1.3417578
C	0.5880161	1.4913780	-2.7848070
H	-0.4137286	1.2604061	-3.1699766
H	0.9265074	2.4122260	-3.2638784
H	1.2560526	0.6798382	-3.0995748
C	-0.9662134	-1.4208152	0.0025197
C	-0.0806140	-0.7973211	-1.0888439
C	0.1903078	0.5477883	0.9182808
C	-0.3739524	-0.8565621	1.3136240
H	-2.0015781	-1.0850018	-0.1255183
H	-0.9562169	-2.5147283	-0.0198258
H	-0.5961505	-0.7276144	-2.0493815
H	0.8398945	-1.3848626	-1.2342614
H	-0.4401737	1.3626650	1.2942142
H	0.4396216	-1.5001432	1.6638634
H	-1.1103882	-0.7773128	2.1171788
C	0.5855021	1.6626660	-1.2813234
C	6.4049802	-0.9298284	3.6614340
H	7.2453246	-0.8661766	2.9442502
O	5.2404692	-0.8132647	3.2635157
C	6.7947668	-1.1601070	5.0946529
H	7.4521543	-0.3517494	5.4417068
H	5.9072276	-1.2093809	5.7290212
H	7.3656129	-2.0937670	5.1853557
