31
-0.00234544 (energy)
C	0.6433316	-2.8517686	-1.2162620
O	1.1202952	-2.5252372	-2.3056314
O	-0.5610910	-3.5145637	-1.1075301
H	-0.9674175	-3.6248267	-1.9946677
N	0.4113194	-2.1609997	1.1778944
C	-0.0111305	-0.0542902	0.0605100
H	0.6436777	-0.2593071	-0.7766243
H	-0.5111483	0.9057312	0.0561423
C	-1.1577687	-0.5681336	2.2180494
H	-0.6305070	-0.5137200	3.1794184
H	-1.6188380	0.4042568	2.0338795
H	-1.9599146	-1.3091391	2.3249194
C	1.4565010	-4.0076011	2.1813643
C	0.1608916	-3.1801381	2.2097674
C	1.3145511	-2.6463957	0.1372192
C	1.8508669	-4.0090429	0.6871680
H	2.2267787	-3.5082822	2.7801108
H	1.3197439	-5.0193349	2.5749852
H	-0.0130172	-2.7182424	3.1842815
H	-0.7125723	-3.8050887	1.9644417
H	2.1248792	-1.9282222	-0.0372858
H	1.3578945	-4.8393499	0.1710911
H	2.9277918	-4.1056781	0.5283824
C	-0.2203880	-0.9180636	1.0828510
C	3.4648246	1.1571134	3.4557025
H	3.5836392	2.2386358	3.6576314
O	3.3442813	0.3611232	4.3937223
C	3.4639860	0.7671305	2.0041548
H	4.4026261	1.0810842	1.5283033
H	3.3422445	-0.3129655	1.8985686
H	2.6522045	1.2835784	1.4749046
