31
-0.00198756 (energy)
C	-2.1622955	0.2838217	2.2955775
O	-2.1993751	1.5107722	2.4141535
O	-1.6713548	-0.5383799	3.2879058
H	-1.3308682	0.0000512	4.0351894
N	-1.8145250	-1.5798376	0.6619296
C	-0.0325945	-0.0745267	0.0107772
H	-0.5705469	0.8269974	0.2743317
H	0.9586437	0.0603789	-0.4026539
C	0.2796849	-2.5412542	-0.2162193
H	-0.1970829	-3.1117192	-1.0239682
H	1.2689861	-2.2348854	-0.5618608
H	0.4131627	-3.2232033	0.6329435
C	-3.8961264	-2.6406405	0.8875971
C	-2.3829998	-2.9086262	0.9399159
C	-2.6975480	-0.5033802	1.1045935
C	-4.0323603	-1.2232126	1.4880033
H	-4.2369448	-2.6495637	-0.1539918
H	-4.4757498	-3.3837821	1.4434951
H	-2.0661620	-3.6364453	0.1894742
H	-2.0821123	-3.2833891	1.9312314
H	-2.8441976	0.2307224	0.3030675
H	-4.1227204	-1.2856237	2.5773640
H	-4.9007815	-0.6788934	1.1086884
C	-0.5331942	-1.3236255	0.1664252
C	3.3959141	1.9115511	0.7267199
H	2.8216441	1.6344478	1.6311593
O	3.5481644	1.0919113	-0.1859807
C	3.9460914	3.3102013	0.7140455
H	4.6105724	3.4623681	1.5750665
H	4.4955720	3.4964857	-0.2111280
H	3.1296132	4.0380090	0.8113727
