31
-0.00133426 (energy)
C	1.9883246	1.0979576	-2.7900556
O	2.2743635	1.0234595	-3.9873335
O	2.9482028	1.2389656	-1.8100024
H	3.8449016	1.2177415	-2.2096934
N	0.4025543	0.2793819	-1.0355635
C	0.8636229	-1.7820651	-2.2200840
H	1.0023017	-1.3077474	-3.1830951
H	0.9615975	-2.8597986	-2.1962224
C	0.4042434	-1.8350254	0.2334760
H	-0.6114688	-1.7184570	0.6333966
H	0.5887658	-2.9021647	0.0948689
H	1.1017499	-1.4663859	0.9960623
C	-0.4948676	2.3462453	-0.3782943
C	0.1804104	1.0818776	0.1780146
C	0.5739450	1.1159364	-2.2209931
C	0.2024250	2.5576577	-1.7410991
H	-1.5655836	2.1607701	-0.5208097
H	-0.3825542	3.2104805	0.2833162
H	-0.4575253	0.5514343	0.8886041
H	1.1271543	1.3295984	0.6839765
H	-0.0790213	0.7741082	-3.0331787
H	1.1121080	3.1521252	-1.6074870
H	-0.4298862	3.0690921	-2.4711237
C	0.5767038	-1.1064523	-1.0815326
C	4.9747829	4.6288104	0.1154968
H	5.0947083	4.6364248	-0.9845681
O	4.9806515	5.6914986	0.7469012
C	4.8121137	3.2706052	0.7383092
H	5.6822341	2.6420935	0.5061228
H	4.7005132	3.3574737	1.8211647
H	3.9338668	2.7643698	0.3161465
