31
-0.00464486 (energy)
C	2.8935571	-1.4326817	1.5868542
O	3.5384289	-1.6666594	2.6116651
O	3.4970594	-1.0527930	0.4065053
H	4.4656561	-0.9581372	0.5373976
N	0.7437825	-0.4867900	0.7227165
C	1.3165993	1.1623880	2.4012068
H	1.8119052	0.4591623	3.0582799
H	1.2749255	2.1896685	2.7397860
C	0.0901697	1.8602505	0.3414376
H	-0.9791837	1.6511699	0.2074052
H	0.1832799	2.8470940	0.7991678
H	0.5436434	1.9051156	-0.6567092
C	-0.0689835	-2.3980410	-0.3708211
C	0.2388732	-0.9082259	-0.5939374
C	1.3836850	-1.5863823	1.4409525
C	1.0489848	-2.8570673	0.5922941
H	-1.0510203	-2.5051551	0.1038100
H	-0.0749847	-2.9718227	-1.3024775
H	-0.6510194	-0.3399016	-0.8738805
H	0.9948863	-0.7749662	-1.3841103
H	0.9911426	-1.6614515	2.4622908
H	1.9304046	-3.1669809	0.0214879
H	0.7492585	-3.6929795	1.2292662
C	0.7600919	0.8213326	1.2141705
C	5.1002128	-4.6770701	1.8262225
H	5.1294102	-3.9648492	2.6726690
O	5.2561174	-4.2711538	0.6690977
C	4.8645953	-6.1140097	2.1987370
H	3.9113344	-6.2136553	2.7348446
H	4.8512757	-6.7430818	1.3061746
H	5.6505888	-6.4604869	2.8828284
