31
-0.004341 (energy)
C	2.0487449	-1.4126694	0.2645481
O	3.2743813	-1.4255407	0.1285620
O	1.2697143	-2.5273376	0.0356812
H	1.8273588	-3.2693197	-0.2848923
N	0.0000000	0.0000000	0.0000000
C	1.1669135	0.5124921	-2.0593450
H	2.1569475	0.4009867	-1.6362627
H	1.1189886	0.7914878	-3.1041141
C	-1.3294199	0.4935926	-2.0174716
H	-1.9055530	1.3118774	-1.5661661
H	-1.2013711	0.7197935	-3.0778882
H	-1.9344892	-0.4180856	-1.9357270
C	-0.7297735	-0.0145603	2.2308096
C	-1.2010126	-0.3012162	0.7955857
C	1.2288163	-0.2254615	0.7573764
C	0.7458493	-0.4735212	2.2243785
H	-0.7954136	1.0605455	2.4332530
H	-1.3244350	-0.5412171	2.9833092
H	-2.0378469	0.3358986	0.5005221
H	-1.5127365	-1.3520114	0.6844788
H	1.8918950	0.6452746	0.6866509
H	0.8065963	-1.5406950	2.4614789
H	1.3658318	0.0671233	2.9438531
C	0.0225583	0.3288384	-1.3580627
C	1.9592882	-6.5355556	1.5634297
H	2.1133860	-6.2058747	2.6084882
O	2.3892935	-5.8514199	0.6279801
C	1.2142176	-7.8303322	1.3975947
H	0.2210429	-7.7563894	1.8603941
H	1.1085066	-8.0777131	0.3391975
H	1.7452728	-8.6404693	1.9147713
