31
-0.00348812 (energy)
C	1.5626431	-1.5774464	-0.6965859
O	1.8003010	-2.7587338	-0.9591150
O	2.5346067	-0.6005476	-0.7486375
H	3.4043265	-1.0005041	-0.9674852
N	0.2042842	-0.0643550	0.7623149
C	0.9184993	-1.7217773	2.3772716
H	0.9379196	-2.5402215	1.6691958
H	1.1807790	-1.9636361	3.3992264
C	0.5880161	0.6475774	3.0919253
H	-0.4137286	1.0720944	3.2385164
H	0.9265074	0.2501080	4.0508249
H	1.2560526	1.4715818	2.8114037
C	-0.9662134	1.0867880	-0.9152125
C	-0.0806140	1.3106788	0.3215948
C	0.1903078	-1.0098897	-0.3513324
C	-0.3739524	-0.1882165	-1.5568818
H	-2.0015781	0.9118412	-0.6012731
H	-0.9562169	1.9391376	-1.6012486
H	-0.5961505	1.8747019	1.1022160
H	0.8398945	1.8542343	0.0553267
H	-0.4401737	-1.8757668	-0.1155216
H	0.4396216	0.0796657	-2.2388667
H	-1.1103882	-0.7654400	-2.1215002
C	0.5855021	-0.4500574	2.0502918
C	4.5158068	-1.1443236	-4.7426495
H	4.9797460	-0.1479499	-4.8714232
O	4.0787143	-1.4863351	-3.6381178
C	4.4698723	-2.0001036	-5.9774000
H	5.4859140	-2.1663215	-6.3596010
H	3.9979412	-2.9605185	-5.7595444
H	3.9124322	-1.4867304	-6.7720835
