37
-0.00586916 (energy)
H	-1.9307076	-1.8948093	-0.9147604
O	0.9448074	-3.0203593	-1.4581209
C	-0.3722044	-3.3239677	-1.3242334
O	-0.7634104	-4.4130299	-0.9301168
C	-0.0012906	0.0015562	-0.0831501
H	-0.3682328	-0.8467958	0.4826939
H	0.3835998	0.8282660	0.5073598
C	-0.0085103	0.0441703	-1.4255105
C	0.5542137	1.2752267	-2.1053433
H	1.3899796	1.0026895	-2.7582768
H	0.9300990	2.0125071	-1.3873697
H	-0.2174184	1.7687941	-2.7050325
N	-0.4814176	-0.9933265	-2.2378305
C	-1.2181111	-2.2154793	-4.1437077
C	-2.1184648	-2.5737686	-2.9744261
C	-1.2868234	-2.1676137	-1.7574220
H	-2.4025883	-3.6302261	-2.9830112
H	-3.0344510	-1.9718107	-3.0170442
C	-0.5975520	-0.8954028	-3.7070614
H	-1.7642915	-2.1268263	-5.0870250
H	-0.4396351	-2.9772123	-4.2706243
H	-1.2599719	-0.0634621	-3.9727247
H	0.3774711	-0.7451577	-4.1811838
H	0.9800867	-2.0845896	-1.7744042
O	3.2150406	-0.5683833	-0.7037456
H	4.0188647	-1.5394992	0.8752239
C	3.9369941	-1.4349644	-0.2210392
C	4.8164478	-2.3714553	-1.0269927
C	4.5942858	-2.2052684	-2.5253892
H	3.5584278	-2.4301971	-2.8027385
H	5.2519619	-2.8712393	-3.0936073
H	4.8043232	-1.1769986	-2.8393317
C	4.5485007	-3.8066523	-0.5892709
H	5.8548145	-2.1130072	-0.7888596
H	4.7360963	-3.9300743	0.4830297
H	5.1952821	-4.5072684	-1.1274531
H	3.5064080	-4.0903281	-0.7743945
