37
-0.00400426 (energy)
H	0.7825310	-2.2485957	0.1075973
O	-2.1595974	-1.8016894	1.0949396
C	-0.8497661	-1.8397214	1.4520384
O	-0.4792635	-2.1405170	2.5775055
C	-1.0239382	-3.3091683	-1.7956322
H	-0.6589289	-3.7977689	-0.8997724
H	-1.3436385	-3.9723062	-2.5945887
C	-1.0894514	-1.9740644	-1.9260361
C	-1.6414776	-1.4075450	-3.2177998
H	-2.5219323	-0.7879491	-3.0177906
H	-1.9485533	-2.1914669	-3.9188913
H	-0.8859351	-0.7969120	-3.7227107
N	-0.7022788	-1.0714460	-0.9283978
C	-0.1195453	0.9476643	0.1906903
C	0.8298265	-0.1425148	0.6559110
C	0.0830047	-1.4288763	0.3020471
H	1.0724327	-0.0503548	1.7187144
H	1.7643935	-0.0854526	0.0844841
C	-0.6640359	0.3928302	-1.1185251
H	0.3765415	1.9133930	0.0592151
H	-0.9324131	1.0776134	0.9150721
H	0.0139808	0.6428422	-1.9427154
H	-1.6573621	0.7993420	-1.3332037
H	-2.1765312	-1.5481362	0.1397596
O	2.9337832	1.1871161	3.3997137
H	3.8970204	-0.1986689	4.5106224
C	3.0454483	0.4967942	4.4077671
C	2.0412120	0.4612686	5.5436643
C	0.9367222	1.4938160	5.3536272
H	1.3422050	2.5112799	5.3241630
H	0.2080603	1.4403705	6.1691774
H	0.4016663	1.3242313	4.4128984
C	2.7732050	0.6785023	6.8628240
H	1.5974548	-0.5411208	5.5418941
H	3.5479405	-0.0819811	7.0101452
H	2.0804113	0.6222071	7.7088127
H	3.2657226	1.6570365	6.8872590
