37
-0.00394182 (energy)
H	1.7573423	1.3810670	1.0142871
O	1.0751726	-1.4829909	-0.0639092
C	0.6724391	-0.1882892	0.0146870
O	-0.5044898	0.1412618	-0.0110187
C	3.3061794	-0.5424457	2.3969043
H	2.2890826	-0.2416197	2.6194907
H	3.8712333	-0.9418438	3.2344525
C	3.8478665	-0.4410602	1.1721204
C	5.2725369	-0.9175308	0.9781596
H	5.3101586	-1.7140468	0.2276597
H	5.7065929	-1.3195009	1.9003167
H	5.9120303	-0.0915383	0.6503843
N	3.1659680	0.0550128	0.0546094
C	2.7082791	0.8841453	-2.1298363
C	1.8898772	1.6900680	-1.1363905
C	1.8553321	0.7890031	0.0983471
H	0.8997352	1.9417041	-1.5277987
H	2.4132696	2.6247649	-0.9005891
C	3.8004400	0.2754692	-1.2608981
H	3.1138790	1.4967420	-2.9399189
H	2.0929982	0.0934156	-2.5754211
H	4.6340130	0.9797842	-1.1579474
H	4.1700262	-0.6593650	-1.6939417
H	2.0617212	-1.4677025	-0.0053176
O	4.2072344	-4.2127021	0.8356971
H	2.5630464	-5.0011935	-0.0345161
C	3.4558327	-5.1528156	0.5974384
C	3.6118570	-6.5478192	1.1715781
C	4.8990495	-6.6871531	1.9752494
H	5.7809528	-6.5034103	1.3515488
H	4.9860174	-7.6919136	2.4016527
H	4.9231415	-5.9680037	2.8012386
C	3.5628314	-7.5625977	0.0353529
H	2.7559376	-6.7135774	1.8361339
H	2.6241798	-7.4791613	-0.5234183
H	3.6362762	-8.5850094	0.4202025
H	4.3821141	-7.4036321	-0.6747216
