37
-0.0038858 (energy)
H	-0.6793568	-0.6674180	2.7915664
O	0.0428057	0.0420534	-0.1758941
C	0.2892162	-0.7867456	0.8714827
O	1.3679707	-1.3363392	1.0407814
C	-1.5604262	1.9578665	2.2067363
H	-0.5657366	1.6569601	2.5142671
H	-1.8314858	2.9848510	2.4350366
C	-2.4135009	1.1319940	1.5790439
C	-3.7689914	1.6747837	1.1761099
H	-3.9042537	1.5984542	0.0921444
H	-3.8921262	2.7296646	1.4452239
H	-4.5689741	1.1164716	1.6730679
N	-2.1162197	-0.1958625	1.2499153
C	-2.3552647	-2.4595580	0.5518586
C	-1.4101468	-2.4277793	1.7401219
C	-0.9411197	-0.9729209	1.7731186
H	-0.5967357	-3.1522219	1.6379081
H	-1.9641546	-2.6611903	2.6576157
C	-3.0966274	-1.1346585	0.6675250
H	-3.0320380	-3.3183902	0.5719818
H	-1.7862802	-2.4955678	-0.3848002
H	-3.9539835	-1.2421904	1.3419727
H	-3.4489501	-0.7961712	-0.3119293
H	-0.8876458	0.3563216	-0.0643574
O	4.9584202	0.9896763	-3.7815895
H	5.5633019	2.2584867	-2.3301826
C	5.0064219	1.3465064	-2.6087498
C	4.4011644	0.5793170	-1.4489658
C	3.5988523	-0.6252622	-1.9258836
H	2.7664422	-0.3208158	-2.5700289
H	3.1876790	-1.1811810	-1.0768739
H	4.2294056	-1.3104291	-2.5029133
C	3.5338159	1.5239540	-0.6252219
H	5.2364331	0.2302832	-0.8307347
H	4.1196977	2.3746111	-0.2600114
H	3.1098117	1.0090753	0.2430807
H	2.7079829	1.9269830	-1.2221033
