37
-0.00388023 (energy)
H	-2.0707377	-0.2590602	-0.5554822
O	-1.0816862	1.0026069	2.1390796
C	-1.9576041	0.1428538	1.5575157
O	-3.0541567	-0.1087045	2.0357595
C	-0.5722759	2.0791604	-1.1011601
H	-1.6228360	2.0235893	-0.8408478
H	-0.2763171	2.9541141	-1.6731357
C	0.3205817	1.1413596	-0.7446007
C	1.7673636	1.3414847	-1.1459770
H	2.4089192	1.3736901	-0.2591441
H	1.9222370	2.2780561	-1.6929749
H	2.1016043	0.5259886	-1.7955163
N	0.0000000	0.0000000	0.0000000
C	0.1551374	-2.1313890	1.0496934
C	-1.2339505	-1.9986805	0.4504850
C	-1.3944437	-0.4883778	0.2746548
H	-2.0004495	-2.4537676	1.0847383
H	-1.2613308	-2.4924244	-0.5286307
C	0.9586920	-1.0861082	0.2880873
H	0.5697709	-3.1372739	0.9388131
H	0.1322578	-1.8878322	2.1185837
H	1.3320203	-1.5108574	-0.6509103
H	1.8050243	-0.7314627	0.8847312
H	-0.2921220	1.0335971	1.5453012
O	4.4469374	1.4435579	1.6557170
H	4.5461124	3.0604311	0.4481453
C	4.9100067	2.5378540	1.3503190
C	6.0321424	3.2367371	2.0935477
C	6.4286112	2.4823974	3.3568569
H	5.5885460	2.4053997	4.0560559
H	7.2542075	2.9867717	3.8696182
H	6.7533961	1.4639502	3.1174941
C	5.6021190	4.6623620	2.4189092
H	6.8904048	3.2688639	1.4123269
H	5.3445868	5.2111741	1.5063655
H	6.4054941	5.2077358	2.9248588
H	4.7190841	4.6725523	3.0676352
