37
-0.00385268 (energy)
H	2.1358431	0.1384365	-0.2874667
O	0.2848444	2.5179786	0.5740859
C	1.3068445	2.1255252	-0.2297301
O	2.1736979	2.8937626	-0.6206301
C	0.9143823	-0.4652329	2.1932681
H	1.8125538	0.1198686	2.0336704
H	0.8318991	-0.9423004	3.1658393
C	-0.0465799	-0.5988503	1.2645605
C	-1.2688315	-1.4228501	1.6130663
H	-2.1750112	-0.8126592	1.5381752
H	-1.2272806	-1.8185821	2.6338641
H	-1.3607594	-2.2781343	0.9357996
N	0.0000000	0.0000000	0.0000000
C	-0.5047976	0.5490376	-2.2610794
C	1.0054594	0.4854430	-2.1151101
C	1.2164110	0.6390463	-0.6085930
H	1.5088055	1.2515417	-2.7123017
H	1.3660657	-0.4971624	-2.4432108
C	-0.9994074	-0.2449106	-1.0596789
H	-0.8565023	0.1320984	-3.2089640
H	-0.8488798	1.5882060	-2.1969989
H	-1.0290652	-1.3133775	-1.3025808
H	-1.9987638	0.0837521	-0.7575145
H	-0.2540192	1.7079234	0.7483888
O	7.1597680	6.3452287	-0.7498403
H	6.0519949	6.1099783	-2.4231125
C	6.2870053	5.7756973	-1.3972229
C	5.4185645	4.6499524	-0.8694690
C	5.8510410	4.2083768	0.5234205
H	6.8816265	3.8363424	0.5222302
H	5.2010434	3.4115216	0.8995211
H	5.8024046	5.0438351	1.2302858
C	5.4616776	3.4850883	-1.8515175
H	4.3944319	5.0377211	-0.8195083
H	5.1234924	3.7985464	-2.8453124
H	4.8145509	2.6674321	-1.5176095
H	6.4797113	3.0945031	-1.9599179
