37
-0.00385257 (energy)
H	-1.6136518	-0.5291327	2.4116305
O	0.1016748	0.0333402	-0.1519547
C	-0.1003465	-0.7981358	0.9027771
O	0.7946493	-1.4667611	1.3991128
C	-1.9465255	2.1693615	1.6256584
H	-1.1458609	1.7601821	2.2306671
H	-2.1544782	3.2252340	1.7745896
C	-2.6430258	1.4369398	0.7412120
C	-3.7237754	2.1266527	-0.0653903
H	-3.5114294	2.0456745	-1.1365836
H	-3.8025783	3.1937120	0.1702640
H	-4.7005426	1.6754917	0.1371723
N	-2.4132226	0.0772962	0.4994177
C	-2.6783024	-2.1559968	-0.2821690
C	-2.1683651	-2.2119687	1.1471870
C	-1.5680427	-0.8215999	1.3573675
H	-1.4559015	-3.0284328	1.2978001
H	-3.0111429	-2.3611432	1.8332430
C	-3.2571461	-0.7514792	-0.3852518
H	-3.4211930	-2.9292129	-0.4972744
H	-1.8468079	-2.2764658	-0.9867781
H	-4.2921395	-0.7448884	-0.0243535
H	-3.2338351	-0.3931500	-1.4192211
H	-0.7717484	0.4563953	-0.3393077
O	2.5081716	2.2501729	2.0997600
H	2.7476878	0.2673069	2.4050770
C	3.1815841	1.2251442	2.0678752
C	4.6390749	1.1639602	1.6531555
C	5.1380405	2.5102452	1.1425518
H	4.5740302	2.8371322	0.2618961
H	6.1968055	2.4556798	0.8687525
H	5.0286687	3.2837309	1.9105180
C	4.8112686	0.0792034	0.5963497
H	5.2104677	0.8865638	2.5466149
H	4.4779653	-0.8930087	0.9757784
H	5.8612126	-0.0162422	0.3008215
H	4.2213428	0.3008492	-0.3000657
