37
-0.003808 (energy)
H	0.3368786	-0.6880720	2.8483126
O	-0.0212264	0.0433548	-0.1794696
C	0.6438952	-0.7304721	0.7168725
O	1.7762946	-1.1467168	0.5197981
C	-0.9861164	1.8042912	2.6286810
H	0.0826239	1.6278249	2.5943156
H	-1.2875892	2.7967478	2.9518460
C	-1.8928722	0.8722880	2.2925804
C	-3.3596114	1.2448764	2.3572706
H	-3.8261674	1.1322529	1.3730223
H	-3.5122264	2.2831276	2.6720745
H	-3.8863200	0.6065550	3.0740523
N	-1.5639694	-0.4178050	1.8596975
C	-1.7481474	-2.7070239	1.2317659
C	-0.4818439	-2.5418803	2.0536118
C	-0.2006838	-1.0417800	1.9623076
H	0.3344052	-3.1680424	1.6813744
H	-0.6802603	-2.8206680	3.0957772
C	-2.5626097	-1.4759522	1.6052219
H	-2.2771744	-3.6385749	1.4516820
H	-1.5103008	-2.6943759	0.1614207
H	-3.1389187	-1.6699447	2.5172181
H	-3.2480708	-1.2000509	0.7977213
H	-0.8964799	0.2487256	0.2312600
O	7.8536761	-0.6922771	0.8395391
H	7.0429226	0.6356163	2.1286169
C	6.8968351	-0.0746201	1.2957629
C	5.4600421	-0.2557635	0.8453986
C	5.3563385	-1.2003261	-0.3459087
H	5.9104396	-0.8160081	-1.2094995
H	4.3120045	-1.3385303	-0.6445604
H	5.7690449	-2.1848971	-0.1003325
C	4.8652990	1.1084778	0.5162894
H	4.9154006	-0.6882040	1.6927881
H	4.9155862	1.7765614	1.3831164
H	3.8147062	1.0167922	0.2218785
H	5.4100085	1.5921862	-0.3022567
