37
-0.00379827 (energy)
H	-2.8091367	-0.5614093	0.7024143
O	0.1770012	0.0353739	-0.0442585
C	-0.7976351	-0.9086509	0.0151162
O	-0.5588214	-2.0972712	0.1718839
C	-1.9961337	1.8596300	1.9222598
H	-1.8381847	0.8551261	2.2971613
H	-2.0132628	2.6436917	2.6740879
C	-2.1564781	2.1371575	0.6180099
C	-2.3455432	3.5842374	0.2123681
H	-1.5536543	3.8942119	-0.4775095
H	-2.3136613	4.2649664	1.0702433
H	-3.3153288	3.7219913	-0.2767043
N	-2.1333021	1.1712915	-0.3951388
C	-2.3552499	0.1163988	-2.5180339
C	-2.8402842	-0.8531001	-1.4545297
C	-2.2016970	-0.3136309	-0.1743471
H	-2.5649758	-1.8867132	-1.6842065
H	-3.9330783	-0.7982558	-1.3771132
C	-2.4276275	1.4638519	-1.8127060
H	-2.9643971	0.0885205	-3.4258787
H	-1.3191728	-0.1116444	-2.7953614
H	-3.4370202	1.8813256	-1.9040533
H	-1.7064518	2.1683029	-2.2389574
H	-0.2859071	0.9011028	-0.1590372
O	2.8288210	1.4876663	-4.3231496
H	2.7078506	-0.5287172	-4.2794749
C	2.9210297	0.4115872	-3.7411391
C	3.2496845	0.2532555	-2.2690887
C	3.5925132	1.5886969	-1.6200657
H	4.4692452	2.0477086	-2.0903492
H	3.8049852	1.4610853	-0.5535303
H	2.7596741	2.2939404	-1.7150659
C	4.3964554	-0.7394434	-2.1185836
H	2.3548687	-0.1585861	-1.7880489
H	4.1366019	-1.7073526	-2.5611689
H	4.6351086	-0.9047226	-1.0628580
H	5.3008799	-0.3808529	-2.6226960
