37
-0.00375348 (energy)
H	-1.9433342	0.9367489	0.0978824
O	0.5463542	2.1243661	-1.3926567
C	-0.4984599	2.3894005	-0.5663734
O	-1.0310588	3.4880156	-0.5046499
C	-1.1462007	-0.8295014	-1.9649714
H	-1.7836509	0.0415576	-2.0621342
H	-1.2871419	-1.6002862	-2.7175125
C	-0.2330402	-0.9628620	-0.9891884
C	0.6172594	-2.2162593	-0.9713930
H	1.6787646	-1.9589381	-1.0494677
H	0.3842959	-2.8895903	-1.8036860
H	0.4557867	-2.7762483	-0.0445753
N	0.0000000	0.0000000	0.0000000
C	0.7935719	1.0638019	1.9766922
C	-0.6556949	1.4680341	1.7706593
C	-0.8916612	1.1747211	0.2887768
H	-0.8351771	2.5107549	2.0489071
H	-1.3060329	0.8324529	2.3840900
C	0.9195796	-0.2009377	1.1382940
H	1.0399270	0.8923509	3.0283259
H	1.4631146	1.8423698	1.5920956
H	0.6019896	-1.0718918	1.7231682
H	1.9514230	-0.3481563	0.8041362
H	0.7695220	1.1712228	-1.2560601
O	4.6001527	0.3912552	0.3000058
H	5.1030444	-0.8757646	-1.1913375
C	5.4249138	-0.2601544	-0.3329393
C	6.8986122	-0.3534887	0.0127730
C	7.2684475	0.5734694	1.1643531
H	7.0702720	1.6213078	0.9128008
H	8.3296184	0.4779680	1.4167862
H	6.6865306	0.3333696	2.0608682
C	7.7228475	-0.0388845	-1.2301456
H	7.0874762	-1.3904688	0.3139555
H	7.4751512	-0.7247868	-2.0477263
H	8.7939785	-0.1333007	-1.0237642
H	7.5306467	0.9791842	-1.5869298
