37
-0.00369917 (energy)
H	-1.6136518	-0.5291327	2.4116305
O	0.1016748	0.0333402	-0.1519547
C	-0.1003465	-0.7981358	0.9027771
O	0.7946493	-1.4667611	1.3991128
C	-1.9465255	2.1693615	1.6256584
H	-1.1458609	1.7601821	2.2306671
H	-2.1544782	3.2252340	1.7745896
C	-2.6430258	1.4369398	0.7412120
C	-3.7237754	2.1266527	-0.0653903
H	-3.5114294	2.0456745	-1.1365836
H	-3.8025783	3.1937120	0.1702640
H	-4.7005426	1.6754917	0.1371723
N	-2.4132226	0.0772962	0.4994177
C	-2.6783024	-2.1559968	-0.2821690
C	-2.1683651	-2.2119687	1.1471870
C	-1.5680427	-0.8215999	1.3573675
H	-1.4559015	-3.0284328	1.2978001
H	-3.0111429	-2.3611432	1.8332430
C	-3.2571461	-0.7514792	-0.3852518
H	-3.4211930	-2.9292129	-0.4972744
H	-1.8468079	-2.2764658	-0.9867781
H	-4.2921395	-0.7448884	-0.0243535
H	-3.2338351	-0.3931500	-1.4192211
H	-0.7717484	0.4563953	-0.3393077
O	1.7926930	1.1844692	-4.3167799
H	2.9004662	2.7914698	-3.7945429
C	2.6654557	1.7231185	-3.6434841
C	3.5338965	1.0078988	-2.6264854
C	3.1014199	-0.4405084	-2.4334909
H	2.0708345	-0.5039392	-2.0669019
H	3.7514175	-0.9492676	-1.7140509
H	3.1500563	-0.9915590	-3.3790026
C	3.4907834	1.7727513	-1.3087873
H	4.5580290	1.0260324	-3.0170386
H	3.8289687	2.8058797	-1.4449126
H	4.1379101	1.3019316	-0.5615356
H	2.4727497	1.8116805	-0.9053124
