37
-0.00351534 (energy)
H	0.9066232	-1.5530013	1.1957628
O	-1.9187493	-1.7455224	-0.1499325
C	-1.1939190	-1.9752307	0.9754470
O	-1.4744828	-2.8565869	1.7747728
C	1.1838055	-1.3620599	-1.6144221
H	1.1098758	-2.2694106	-1.0263947
H	1.6956987	-1.4611070	-2.5675468
C	0.6776200	-0.1852901	-1.2109515
C	0.8216672	1.0089225	-2.1315151
H	-0.1630976	1.4066172	-2.3983117
H	1.3334614	0.7549830	-3.0663626
H	1.4032984	1.7994141	-1.6462520
N	0.0000000	0.0000000	0.0000000
C	-1.0606853	1.0401496	1.8605854
C	-0.2293675	-0.1208027	2.3776230
C	-0.0283394	-0.9863917	1.1334238
H	-0.7208838	-0.6423633	3.2042357
H	0.7396278	0.2499606	2.7336890
C	-0.4501857	1.3173687	0.4935465
H	-1.0234897	1.9133946	2.5179130
H	-2.1093638	0.7381142	1.7537307
H	0.4097187	1.9893533	0.5960340
H	-1.1847294	1.7721305	-0.1785197
H	-1.4710982	-0.9983285	-0.6171097
O	2.9432423	2.3671129	1.7194408
H	4.2146383	3.4757315	0.6072984
C	3.6491281	3.3558383	1.5481740
C	3.8779586	4.4411215	2.5824912
C	3.0132399	4.2334161	3.8199427
H	1.9466649	4.2569859	3.5701838
H	3.2062743	5.0113370	4.5659343
H	3.2223855	3.2633031	4.2837891
C	3.6077122	5.7999363	1.9470578
H	4.9340478	4.3850586	2.8710057
H	4.2506058	5.9584246	1.0742331
H	3.7994754	6.6098478	2.6584644
H	2.5688943	5.8801418	1.6077578
