37
-0.0034959 (energy)
H	-2.9261333	-0.2483762	0.2754418
O	0.1843730	0.0156500	-0.0173553
C	-1.0212575	0.2525916	-0.5960933
O	-1.1757221	0.2995205	-1.8078543
C	-1.6536590	-1.9958682	2.1023269
H	-1.8668797	-2.1873106	1.0571408
H	-1.5660877	-2.8766734	2.7322516
C	-1.4990905	-0.7592766	2.6030757
C	-1.1787624	-0.6189963	4.0768607
H	-0.2248404	-0.0987113	4.2126531
H	-1.0938778	-1.5890876	4.5789321
H	-1.9656240	-0.0553359	4.5885128
N	-1.5901411	0.4102943	1.8390612
C	-1.7481246	2.7070307	1.2317834
C	-2.6729414	1.9130597	0.3259406
C	-2.1320002	0.4875137	0.4394729
H	-2.6811135	2.3026218	-0.6963494
H	-3.6968263	1.9549471	0.7172276
C	-1.5376424	1.7701069	2.4134038
H	-2.1735427	3.6683163	1.5333946
H	-0.7946508	2.8997596	0.7257072
H	-2.3468851	1.8972500	3.1417329
H	-0.5784087	1.9662148	2.9027380
H	0.0254371	0.0158545	0.9581876
O	5.1243040	-0.8465018	-3.3882206
H	4.0165309	-2.4535023	-2.8659833
C	4.2515414	-1.3851510	-2.7149247
C	3.3831006	-0.6699311	-1.6979260
C	3.8155772	0.7784760	-1.5049319
H	4.8461627	0.8419069	-1.1383429
H	3.1655797	1.2872354	-0.7854919
H	3.7669408	1.3295265	-2.4504436
C	3.4262137	-1.4347834	-0.3802278
H	2.3589680	-0.6880648	-2.0884792
H	3.0880285	-2.4679118	-0.5163530
H	2.7790871	-0.9639637	0.3670239
H	4.4442474	-1.4737126	0.0232470
