37
-0.00345701 (energy)
H	1.9307077	1.8948092	-0.9147604
O	-0.9448073	3.0203593	-1.4581211
C	0.3722045	3.3239676	-1.3242336
O	0.7634106	4.4130298	-0.9301170
C	0.0012906	-0.0015562	-0.0831501
H	0.3682328	0.8467958	0.4826938
H	-0.3835999	-0.8282660	0.5073598
C	0.0085103	-0.0441704	-1.4255105
C	-0.5542137	-1.2752268	-2.1053433
H	-1.3899795	-1.0026896	-2.7582768
H	-0.9300990	-2.0125072	-1.3873696
H	0.2174185	-1.7687943	-2.7050324
N	0.4814177	0.9933263	-2.2378306
C	1.2181114	2.2154790	-4.1437078
C	2.1184651	2.5737683	-2.9744262
C	1.2868236	2.1676135	-1.7574221
H	2.4025886	3.6302258	-2.9830113
H	3.0344512	1.9718104	-3.0170442
C	0.5975522	0.8954025	-3.7070615
H	1.7642918	2.1268259	-5.0870250
H	0.4396354	2.9772121	-4.2706244
H	1.2599720	0.0634618	-3.9727246
H	-0.3774709	0.7451575	-4.1811839
H	-0.9800866	2.0845895	-1.7744044
O	3.3045548	0.9256338	1.3230768
H	5.0549279	0.4447938	2.2103934
C	4.1730303	1.1081670	2.1701996
C	4.1096087	2.1653967	3.2556757
C	2.8984553	3.0749204	3.0882243
H	2.9288186	3.6080490	2.1314750
H	2.8542361	3.8177068	3.8914925
H	1.9689840	2.4957607	3.1141413
C	5.4043754	2.9695328	3.2442320
H	4.0276380	1.6333298	4.2106070
H	6.2715871	2.3167871	3.3929619
H	5.4063633	3.7196525	4.0418194
H	5.5429260	3.4855965	2.2875806
