37
-0.00344669 (energy)
H	-1.3044549	0.6554128	1.9731213
O	-1.0321901	1.0079503	-1.1304700
C	-0.6268628	0.3052721	-0.0411688
O	0.4702967	-0.2290269	0.0308864
C	-2.2870027	3.2011025	1.2217945
H	-1.2551152	2.9305675	1.4129651
H	-2.5315213	4.2497642	1.3660543
C	-3.2149228	2.3141300	0.8267708
C	-4.6200136	2.8165052	0.5666364
H	-4.9120526	2.6151515	-0.4693526
H	-4.7124965	3.8965062	0.7260200
H	-5.3330466	2.3261831	1.2373228
N	-2.9563592	0.9546886	0.6147129
C	-3.2733968	-1.3731411	0.2281399
C	-2.1645721	-1.2100476	1.2529012
C	-1.7098051	0.2350792	1.0467853
H	-1.3680124	-1.9476710	1.1175986
H	-2.5757512	-1.3304734	2.2626683
C	-4.0024980	-0.0381671	0.2960487
H	-3.9316006	-2.2185449	0.4474117
H	-2.8476210	-1.5226374	-0.7712277
H	-4.7505891	-0.0596407	1.0969238
H	-4.4979051	0.1863107	-0.6538024
H	-1.9392029	1.3402017	-0.9209911
O	7.3111165	0.4055914	-0.1854361
H	6.8082249	-1.2950871	0.7826221
C	6.4863554	-0.4230134	0.1865426
C	5.0126571	-0.3924786	-0.1702430
C	4.6428217	0.8724405	-0.9353361
H	4.8409971	1.7710507	-0.3405726
H	3.5816508	0.8690357	-1.2052092
H	5.2247386	0.9534466	-1.8599037
C	4.1884217	-0.5219504	1.1053194
H	4.8237932	-1.2639108	-0.8079299
H	4.4361181	-1.4461167	1.6390018
H	3.1172908	-0.5400862	0.8790921
H	4.3806224	0.3126940	1.7887868
