37
-0.00338998 (energy)
H	1.5164307	1.5375307	0.0080515
O	-1.3116541	1.8017266	1.3357664
C	-0.3700460	2.4116994	0.5703050
O	-0.2359408	3.6260864	0.5289951
C	1.2397704	-0.4151817	2.0380272
H	1.5396134	0.6186365	2.1638888
H	1.5871363	-1.1011728	2.8055198
C	0.4845522	-0.8382533	1.0111604
C	0.1087631	-2.3045586	0.9558236
H	-0.9800345	-2.4206336	0.9680585
H	0.5050404	-2.8686230	1.8073834
H	0.5041603	-2.7678483	0.0460568
N	0.0000000	0.0000000	0.0000000
C	-0.9866296	0.7546730	-2.0312000
C	0.2268441	1.6212852	-1.7436371
C	0.4593639	1.4093241	-0.2474101
H	0.0608142	2.6663419	-2.0214731
H	1.0884733	1.2482542	-2.3107731
C	-0.7288369	-0.4871823	-1.1887666
H	-1.0979211	0.5211173	-3.0937845
H	-1.9008760	1.2582189	-1.6950974
H	-0.1023052	-1.1941915	-1.7447328
H	-1.6687118	-0.9767861	-0.9149805
H	-1.1922091	0.8305719	1.1959941
O	3.3223327	0.1225368	-3.5656728
H	5.0538467	-0.8483328	-3.9419911
C	4.2169525	-0.2375591	-4.3240733
C	4.3168332	0.1531461	-5.7860543
C	3.0938621	0.9373596	-6.2459639
H	2.1775459	0.3459604	-6.1404702
H	3.1911646	1.2314350	-7.2961918
H	2.9687215	1.8490146	-5.6516243
C	4.5089856	-1.1042635	-6.6258071
H	5.2055486	0.7874762	-5.8836173
H	5.4046250	-1.6514073	-6.3116140
H	4.6215407	-0.8537192	-7.6857072
H	3.6563275	-1.7847532	-6.5228123
