37
-0.00544904 (energy)
H	-0.6942310	0.6456871	-2.2639584
O	-0.8647101	-1.6131839	-0.0962111
C	-0.5056776	-0.3286153	-0.3523422
O	0.3793789	0.2465399	0.2643407
C	-0.9919798	-1.8645791	-3.5368829
H	-0.0697627	-1.4166083	-3.1856498
H	-0.8864706	-2.5835555	-4.3444920
C	-2.1942122	-1.5674991	-3.0170940
C	-3.4102486	-2.2776253	-3.5750429
H	-3.9214806	-2.8377436	-2.7850982
H	-3.1500036	-2.9923870	-4.3635521
H	-4.1108188	-1.5561586	-4.0078699
N	-2.3901699	-0.6586392	-1.9704427
C	-3.4436945	0.7934424	-0.4051032
C	-2.1781876	1.4703991	-0.9015399
C	-1.3580504	0.3077652	-1.4613127
H	-1.6712871	2.0270889	-0.1077825
H	-2.4275591	2.1718804	-1.7071068
C	-3.7217956	-0.2462978	-1.4821157
H	-4.2751131	1.4921691	-0.2764803
H	-3.2587784	0.3024113	0.5577386
H	-4.2941740	0.2053105	-2.3006114
H	-4.2832702	-1.0925481	-1.0738971
H	-1.5827881	-1.8310578	-0.7395148
O	2.6612754	-0.8162852	-3.3052006
H	2.4109231	-2.0335185	-1.7120871
C	2.9513709	-1.1877152	-2.1724741
C	3.9826185	-0.5192191	-1.2838480
C	4.7241758	0.5922532	-2.0165745
H	5.2637476	0.2050661	-2.8880479
H	5.4484490	1.0796963	-1.3557006
H	4.0263451	1.3575315	-2.3735001
C	4.9519041	-1.5746187	-0.7644218
H	3.4372476	-0.0869225	-0.4368543
H	4.4192237	-2.3578182	-0.2138731
H	5.6896342	-1.1298012	-0.0886107
H	5.4889537	-2.0598398	-1.5871235
