37
-0.00537102 (energy)
H	0.0156523	2.2093556	0.8936540
O	2.5711805	0.4970520	1.5002695
C	1.3319433	0.8532967	1.9268899
O	1.0182572	0.8698280	3.1083103
C	2.1834396	3.1667879	-0.6537469
H	1.9518094	3.4231257	0.3734656
H	2.7546714	3.9084841	-1.2049934
C	1.8030514	2.0114788	-1.2232776
C	2.2076883	1.7548108	-2.6601915
H	2.8144715	0.8459178	-2.7296959
H	2.8019275	2.5747321	-3.0784822
H	1.3220219	1.6386860	-3.2932493
N	1.0759537	1.0155737	-0.5604001
C	-0.2181857	-0.9386043	-0.1419096
C	-0.7707347	0.1875200	0.7141050
C	0.3853422	1.1868981	0.7632785
H	-1.0928728	-0.1645152	1.6985848
H	-1.6342226	0.6415675	0.2126773
C	0.5581054	-0.1988044	-1.2228461
H	-1.0018271	-1.5789029	-0.5565706
H	0.4588683	-1.5671919	0.4487218
H	-0.1142823	0.0826460	-2.0414931
H	1.3673537	-0.8203900	-1.6188060
H	2.5584195	0.5847560	0.5158459
O	3.4036430	-2.5817602	-0.8534087
H	4.2509536	-3.2497902	0.8548491
C	3.9763887	-3.4454096	-0.1967071
C	4.4203862	-4.7894104	-0.7412650
C	3.9461448	-5.0030961	-2.1736056
H	2.8526171	-4.9829767	-2.2392537
H	4.2934977	-5.9669420	-2.5599654
H	4.3310401	-4.2178436	-2.8333394
C	3.9069980	-5.8929697	0.1762184
H	5.5164697	-4.7909833	-0.7237547
H	4.2724345	-5.7525642	1.1994467
H	4.2417049	-6.8765583	-0.1692579
H	2.8120098	-5.8980639	0.2171434
