37
-0.0053097 (energy)
H	-2.8091367	0.5614093	-0.7024143
O	0.1770012	-0.0353739	0.0442585
C	-0.7976351	0.9086509	-0.0151162
O	-0.5588214	2.0972713	-0.1718838
C	-1.9961337	-1.8596299	-1.9222599
H	-1.8381847	-0.8551260	-2.2971614
H	-2.0132628	-2.6436916	-2.6740880
C	-2.1564781	-2.1371575	-0.6180100
C	-2.3455432	-3.5842373	-0.2123683
H	-1.5536543	-3.8942119	0.4775092
H	-2.3136613	-4.2649663	-1.0702436
H	-3.3153288	-3.7219913	0.2767041
N	-2.1333021	-1.1712916	0.3951388
C	-2.3552499	-0.1163990	2.5180339
C	-2.8402842	0.8531000	1.4545298
C	-2.2016970	0.3136308	0.1743471
H	-2.5649758	1.8867132	1.6842066
H	-3.9330783	0.7982557	1.3771133
C	-2.4276275	-1.4638520	1.8127059
H	-2.9643971	-0.0885207	3.4258787
H	-1.3191728	0.1116442	2.7953614
H	-3.4370202	-1.8813257	1.9040532
H	-1.7064518	-2.1683030	2.2389573
H	-0.2859071	-0.9011028	0.1590371
O	4.0319699	0.4708398	-0.6914445
H	2.9708640	1.5953915	0.6092406
C	3.3652244	1.4625307	-0.4136236
C	2.9596790	2.5344247	-1.4068966
C	3.5975327	2.3095304	-2.7724483
H	4.6912057	2.3351533	-2.7112909
H	3.2774720	3.0778268	-3.4839315
H	3.3124085	1.3336607	-3.1803662
C	3.3342214	3.9011418	-0.8456580
H	1.8696666	2.4757915	-1.5076101
H	2.8518283	4.0717908	0.1230677
H	3.0213589	4.7018779	-1.5237198
H	4.4159806	3.9846008	-0.6922577
