37
-0.00508688 (energy)
H	1.5787438	2.0091562	-2.5370053
O	3.7257385	0.4344105	-0.8813242
C	3.5036723	1.4632828	-1.7396553
O	4.3506120	1.8647853	-2.5244580
C	0.5292738	-0.5085546	-1.7819072
H	1.1573838	-0.2940297	-2.6386358
H	-0.1081172	-1.3834219	-1.8748134
C	0.5290248	0.2423373	-0.6683718
C	-0.3753907	-0.1720323	0.4738460
H	0.2135757	-0.3664068	1.3763095
H	-0.9374483	-1.0854369	0.2499226
H	-1.1054224	0.6147351	0.6899539
N	1.3349878	1.3727049	-0.4878249
C	2.2460040	3.3784554	0.4153679
C	2.1999767	3.5179421	-1.0961388
C	2.1012183	2.0697991	-1.5765728
H	3.0698776	4.0546802	-1.4861220
H	1.2976301	4.0692443	-1.3877499
C	1.2462939	2.2627439	0.6876238
H	1.9866192	4.3055574	0.9342333
H	3.2493626	3.0761472	0.7382472
H	0.2341959	2.6765183	0.7647645
H	1.4913382	1.7348634	1.6146250
H	2.8833828	0.3085554	-0.3797844
O	3.8397111	0.3655612	2.2845689
H	4.5170488	-1.4489209	2.8600793
C	4.3024730	-0.3986849	3.1253806
C	4.5541478	-0.0341594	4.5758274
C	4.2948959	1.4440911	4.8398918
H	4.9540095	2.0788530	4.2372610
H	4.4587956	1.6866110	5.8949974
H	3.2618870	1.7097731	4.5902517
C	5.9835328	-0.4140526	4.9442375
H	3.8591255	-0.6318228	5.1770352
H	6.1588963	-1.4829501	4.7800443
H	6.1870368	-0.1970419	5.9979555
H	6.7100171	0.1346532	4.3344486
