11
-0.00541026 (energy)
O	-0.0021291	-0.0551173	-0.0168120
H	0.0337910	0.8747509	0.2668180
C	-1.2777257	-0.3449914	-0.4054240
H	-1.3700915	-1.3740730	-0.7318282
C	-2.2877909	0.5252743	-0.3877427
H	-3.2772009	0.2191548	-0.7132153
H	-2.1656437	1.5496681	-0.0556583
C	3.0211857	0.0874015	1.4486400
H	4.1061117	0.1698522	1.2758145
H	2.5824376	-0.9031423	1.2484423
O	2.3478672	1.0336071	1.8373252
