11
-0.00343162 (energy)
C	0.0794443	0.0003187	-0.0156656
H	-0.5882313	0.7275231	-0.4672813
H	-0.3576987	-0.7313178	0.6538093
C	1.3839398	0.0274221	-0.2903719
H	1.8485015	0.7462169	-0.9548992
O	2.2999257	-0.8419524	0.2266879
H	1.8403267	-1.4660597	0.8146077
C	5.0300377	-0.1711179	0.6396157
H	5.1618423	-1.1808438	1.0601064
H	4.9017232	-0.1250941	-0.4536241
O	5.0263964	0.8330508	1.3405942
