11
-0.00202589 (energy)
C	-0.0819989	0.0179496	0.0013714
H	0.9763465	-0.2137224	-0.0163285
C	-0.5733764	1.2538856	0.0958000
H	0.0982569	2.1043328	0.1607766
H	-1.6381024	1.4556368	0.1112170
O	-0.8436208	-1.1110695	-0.0848897
H	-1.7822909	-0.8562954	-0.0654070
C	1.5377813	-3.9532703	1.5657141
H	1.3375346	-2.9725108	1.1055583
H	0.8629386	-4.2383315	2.3885648
O	2.4496022	-4.6781871	1.1878026
