11
0.00585475 (energy)
C	-0.0819989	0.0179496	0.0013714
H	0.9763465	-0.2137224	-0.0163285
C	-0.5733764	1.2538856	0.0958000
H	0.0982569	2.1043328	0.1607766
H	-1.6381024	1.4556368	0.1112170
O	-0.8436208	-1.1110695	-0.0848897
H	-1.7822909	-0.8562954	-0.0654070
C	2.0626405	-3.1335931	-1.3805517
H	2.5212641	-2.7196545	-0.4683836
H	2.7593382	-3.6125031	-2.0869605
O	0.8588195	-3.0659041	-1.5949622
