11
0.0079297 (energy)
O	-0.0021291	-0.0551173	-0.0168120
H	0.0337910	0.8747509	0.2668180
C	-1.2777257	-0.3449914	-0.4054240
H	-1.3700915	-1.3740730	-0.7318282
C	-2.2877909	0.5252743	-0.3877427
H	-3.2772009	0.2191548	-0.7132153
H	-2.1656437	1.5496681	-0.0556583
C	3.0464037	-1.0637820	0.1191382
H	4.0591727	-1.4870344	0.2134130
H	2.8855061	-0.4065834	-0.7503201
O	2.1587586	-1.3075419	0.9268549
