11
0.0168242 (energy)
C	0.0794443	0.0003187	-0.0156656
H	-0.5882313	0.7275231	-0.4672813
H	-0.3576987	-0.7313178	0.6538093
C	1.3839398	0.0274221	-0.2903719
H	1.8485015	0.7462169	-0.9548992
O	2.2999257	-0.8419524	0.2266879
H	1.8403267	-1.4660597	0.8146077
C	1.2521105	-1.2386670	2.8890221
H	0.5264487	-0.6501254	2.3052714
H	1.6170179	-2.1582687	2.4043251
O	1.6280214	-0.8937208	4.0023244
