11
0.0282958 (energy)
C	-0.0819989	0.0179496	0.0013714
H	0.9763465	-0.2137224	-0.0163285
C	-0.5733764	1.2538856	0.0958000
H	0.0982569	2.1043328	0.1607766
H	-1.6381024	1.4556368	0.1112170
O	-0.8436208	-1.1110695	-0.0848897
H	-1.7822909	-0.8562954	-0.0654070
C	3.0703228	0.2674497	0.4296097
H	3.5601204	0.3096074	1.4155368
H	2.1109133	-0.2732355	0.3988057
O	3.5596354	0.7869028	-0.5656192
