11
0.0375039 (energy)
C	-0.0819989	0.0179496	0.0013714
H	0.9763465	-0.2137224	-0.0163285
C	-0.5733764	1.2538856	0.0958000
H	0.0982569	2.1043328	0.1607766
H	-1.6381024	1.4556368	0.1112170
O	-0.8436208	-1.1110695	-0.0848897
H	-1.7822909	-0.8562954	-0.0654070
O	2.5763659	1.7396662	2.3101283
C	1.3812239	1.6265729	2.0680862
H	0.9373492	1.9772220	1.1227017
H	0.6781067	1.1673779	2.7811935
