11
0.105117 (energy)
C	0.0794443	0.0003187	-0.0156656
H	-0.5882313	0.7275231	-0.4672813
H	-0.3576987	-0.7313178	0.6538093
C	1.3839398	0.0274221	-0.2903719
H	1.8485015	0.7462169	-0.9548992
O	2.2999257	-0.8419524	0.2266879
H	1.8403267	-1.4660597	0.8146077
O	0.9257123	-0.5352081	-2.5013035
C	1.8913518	0.2091157	-2.3861450
H	2.9278462	-0.1597845	-2.4437931
H	1.7815817	1.2923638	-2.2179787
