11
0.196586 (energy)
C	-0.0819989	0.0179496	0.0013714
H	0.9763465	-0.2137224	-0.0163285
C	-0.5733764	1.2538856	0.0958000
H	0.0982569	2.1043328	0.1607766
H	-1.6381024	1.4556368	0.1112170
O	-0.8436208	-1.1110695	-0.0848897
H	-1.7822909	-0.8562954	-0.0654070
C	-1.0530677	-0.1018401	-2.2229006
H	0.0031636	-0.4131909	-2.1887319
H	-1.3788174	0.3698707	-3.1637151
O	-1.8142286	-0.2689274	-1.2782023
