11
0.609642 (energy)
O	-0.0021291	-0.0551173	-0.0168120
H	0.0337910	0.8747509	0.2668180
C	-1.2777257	-0.3449914	-0.4054240
H	-1.3700915	-1.3740730	-0.7318282
C	-2.2877909	0.5252743	-0.3877427
H	-3.2772009	0.2191548	-0.7132153
H	-2.1656437	1.5496681	-0.0556583
O	-3.2585257	-0.3233010	1.9105527
C	-2.8780729	-0.2037810	0.7526626
H	-2.8765394	0.7670342	0.2318490
H	-2.5144766	-1.0599069	0.1622372
