11
0.630117 (energy)
C	-0.0819989	0.0179496	0.0013714
H	0.9763465	-0.2137224	-0.0163285
C	-0.5733764	1.2538856	0.0958000
H	0.0982569	2.1043328	0.1607766
H	-1.6381024	1.4556368	0.1112170
O	-0.8436208	-1.1110695	-0.0848897
H	-1.7822909	-0.8562954	-0.0654070
O	1.4918141	-0.5522557	0.1839294
C	2.2662550	-1.3586431	-0.3157900
H	2.3704628	-1.4752016	-1.4063340
H	2.9052924	-2.0159859	0.2951826
