11
-0.0043343 (energy)
O	-0.0021291	-0.0551173	-0.0168120
H	0.0337910	0.8747509	0.2668180
C	-1.2777257	-0.3449914	-0.4054240
H	-1.3700915	-1.3740730	-0.7318282
C	-2.2877909	0.5252743	-0.3877427
H	-3.2772009	0.2191548	-0.7132153
H	-2.1656437	1.5496681	-0.0556583
O	3.1974446	1.5869711	1.1054311
C	3.0541815	0.3760060	0.9923909
H	2.9738189	-0.2903264	1.8660465
H	2.9970508	-0.1198355	0.0102335
