11
-0.00404889 (energy)
C	0.0794443	0.0003187	-0.0156656
H	-0.5882313	0.7275231	-0.4672813
H	-0.3576987	-0.7313178	0.6538093
C	1.3839398	0.0274221	-0.2903719
H	1.8485015	0.7462169	-0.9548992
O	2.2999257	-0.8419524	0.2266879
H	1.8403267	-1.4660597	0.8146077
O	5.9605628	-3.2009792	0.2118835
C	5.4621716	-2.1177497	-0.0673278
H	5.2147906	-1.3689169	0.7019468
H	5.2312436	-1.8269990	-1.1045800
