11
-0.00396973 (energy)
O	-0.0021291	-0.0551173	-0.0168120
H	0.0337910	0.8747509	0.2668180
C	-1.2777257	-0.3449914	-0.4054240
H	-1.3700915	-1.3740730	-0.7318282
C	-2.2877909	0.5252743	-0.3877427
H	-3.2772009	0.2191548	-0.7132153
H	-2.1656437	1.5496681	-0.0556583
O	2.5520593	0.1393950	1.8915615
C	2.8081125	-0.5475308	0.9105882
H	2.6623568	-1.6395187	0.9035884
H	3.1996073	-0.1147793	-0.0238709
