11
-0.00389246 (energy)
C	0.0794443	0.0003187	-0.0156656
H	-0.5882313	0.7275231	-0.4672813
H	-0.3576987	-0.7313178	0.6538093
C	1.3839398	0.0274221	-0.2903719
H	1.8485015	0.7462169	-0.9548992
O	2.2999257	-0.8419524	0.2266879
H	1.8403267	-1.4660597	0.8146077
C	5.6054041	-0.2740718	-0.0407689
H	5.5282585	-1.0947974	0.6901136
H	5.0184163	-0.4037395	-0.9640172
O	6.2974122	0.7162273	0.1596589
