11
-0.00357981 (energy)
O	-0.0021291	-0.0551173	-0.0168120
H	0.0337910	0.8747509	0.2668180
C	-1.2777257	-0.3449914	-0.4054240
H	-1.3700915	-1.3740730	-0.7318282
C	-2.2877909	0.5252743	-0.3877427
H	-3.2772009	0.2191548	-0.7132153
H	-2.1656437	1.5496681	-0.0556583
C	3.6234801	0.9253929	0.9410367
H	4.5981690	1.4251209	0.8227798
H	3.5445122	-0.0749429	0.4862308
O	2.6901470	1.4470023	1.5381563
