11
-268.227 (energy)
C	-1.3153320	-0.4151544	0.1162722
H	-2.0361211	0.3096677	-0.2431387
C	-1.6429033	-1.6025468	0.6268628
H	-2.6857199	-1.8947246	0.7026222
H	-0.8993892	-2.3081223	0.9789036
O	-0.0361780	0.0403083	-0.0197860
H	0.5741714	-0.6397211	0.3140174
C	4.5160510	-0.4922086	0.6903441
H	5.3948707	-0.5819018	1.3486468
H	4.6361050	0.1820157	-0.1726533
O	3.4752376	-1.1012742	0.9036172
