11
-268.225 (energy)
C	-1.3835909	0.0313946	0.0257171
H	-1.8054794	-0.0903398	1.0163083
C	-2.1109688	0.1973622	-1.0793995
H	-3.1948488	0.2168595	-1.0211090
H	-1.6609125	0.3167897	-2.0580562
O	-0.0197883	-0.0066822	0.0537481
H	0.3140551	0.1060512	-0.8530213
C	3.8716710	-0.1343337	-0.8713759
H	3.1433136	-0.7038514	-0.2723130
H	4.9141295	-0.1768368	-0.5174980
O	3.5443997	0.5033832	-1.8643258
