11
-268.225 (energy)
C	-0.3611846	-1.0376972	-0.8905545
H	-1.0795601	-0.9230059	-1.6935879
C	-0.0196774	-0.0603877	-0.0502299
H	-0.4685150	0.9233976	-0.1465891
H	0.7028101	-0.2043720	0.7446682
O	0.1466264	-2.3036492	-0.8494883
H	0.7841310	-2.3603399	-0.1168459
C	0.5519297	-2.2764427	-4.2840943
H	-0.4007555	-2.7379134	-3.9788615
H	1.4001637	-2.9700327	-4.3989326
O	0.6607812	-1.0728937	-4.4824880
