11
-268.222 (energy)
C	1.3209599	-0.2697139	-0.4274066
H	1.6143444	-1.1698244	-0.9544803
C	0.0760945	-0.0140507	-0.0238563
H	-0.7177546	-0.7286920	-0.2179316
H	-0.1882896	0.8959909	0.5019840
O	2.3829202	0.5643493	-0.2305009
H	2.0742689	1.3555964	0.2438970
C	4.5054847	4.3242763	1.5891719
H	3.8040424	5.0257782	2.0683431
H	4.0514600	3.4147788	1.1643993
O	5.7094613	4.5409906	1.5324793
