11
-268.221 (energy)
C	-0.5156575	0.0210279	1.3168190
H	-1.1212242	0.8257403	1.7165778
C	-0.0288358	-0.0002039	0.0756662
H	-0.2313278	0.8219778	-0.6037365
H	0.5746710	-0.8195496	-0.2972077
O	-0.3160395	-0.9627250	2.2412517
H	0.2300222	-1.6610543	1.8405725
C	3.4446290	0.0784811	-0.0077518
H	3.6318611	0.9298546	-0.6814273
H	3.5661525	-0.9193820	-0.4585923
O	3.1229133	0.2311041	1.1639752
