11
-268.221 (energy)
C	-0.0145742	0.0761978	0.0320838
H	0.1735329	-0.9072739	-0.3820167
C	-1.2050207	0.6766196	0.0166791
H	-2.0607824	0.1796254	-0.4296867
H	-1.3636451	1.6620306	0.4390371
O	1.1167855	0.6188004	0.5685542
H	0.9017564	1.4973538	0.9267404
C	3.2407953	3.3381747	0.5677903
H	3.7495437	2.7124403	1.3183653
H	2.7766704	4.2597767	0.9537874
O	3.1942918	3.0299012	-0.6165002
