11
-268.221 (energy)
C	-0.5610515	-0.4173017	1.2294054
H	-1.6259088	-0.4576237	1.4257037
C	-0.0306562	-0.0241313	0.0709563
H	-0.6746036	0.2812890	-0.7479601
H	1.0396220	0.0060382	-0.0969040
O	0.1639236	-0.8182735	2.3137604
H	1.1099416	-0.7661675	2.0930208
C	4.2962530	-1.9915372	2.4447595
H	4.1272429	-1.3746211	1.5477748
H	3.4156267	-2.5385528	2.8176231
O	5.3899484	-2.0643844	2.9908936
