11
-268.221 (energy)
C	-0.0775279	-1.0449143	-0.9500003
H	-0.4685786	-0.9227265	-1.9531103
C	-0.0038049	-0.0608195	-0.0533238
H	-0.3472953	0.9367980	-0.3089550
H	0.3925992	-0.2126306	0.9438722
O	0.3277172	-2.3280496	-0.7229911
H	0.6698534	-2.3909413	0.1855124
C	2.8246140	-0.8869571	-1.9363410
H	2.6811864	0.1818260	-2.1618682
H	3.1527298	-1.1157316	-0.9098138
O	2.6321741	-1.7622419	-2.7709560
