11
-268.227 (energy)
C	0.6073479	1.2324063	0.1681490
H	0.7991217	1.7558805	-0.7609783
C	0.9191524	1.7121975	1.3725098
H	1.3951932	2.6833744	1.4661816
H	0.7151001	1.1655042	2.2857851
O	0.0090428	0.0256484	-0.0508476
H	-0.1435163	-0.4070585	0.8069877
C	2.9666955	-1.6383257	1.6778444
H	3.0908627	-2.4881911	0.9878859
H	3.7265132	-0.8448372	1.5953279
O	2.0456042	-1.5795664	2.4827525
