11
-268.221 (energy)
C	0.0252256	-0.0585065	0.0546675
H	-0.3003569	0.6966268	-0.6509172
C	-0.6462006	-0.3861108	1.1590990
H	-1.5799772	0.1134295	1.3980436
H	-0.2958232	-1.1464328	1.8473786
O	1.2041261	-0.6283331	-0.3296297
H	1.4569611	-1.2970607	0.3301194
C	2.4741048	1.3410650	2.1319251
H	3.1147963	1.9603009	1.4840111
H	2.9711212	0.4814078	2.6091252
O	1.2886337	1.5915677	2.3098176
