11
-268.221 (energy)
C	-0.0548941	0.0358078	0.0524625
H	0.6536149	-0.4263579	-0.6246622
C	-0.4976835	-0.5359068	1.1727243
H	-0.1486887	-1.5242732	1.4554048
H	-1.2073069	-0.0491329	1.8315630
O	-0.4340399	1.2713175	-0.3856670
H	-1.0674194	1.6468610	0.2500911
C	1.5220279	3.1137039	-2.9903960
H	2.0604727	3.9927113	-3.3791819
H	0.7455624	2.7007549	-3.6539699
O	1.7700310	2.6280669	-1.8938605
