11
-268.221 (energy)
C	0.0227170	-0.0284853	-0.0756334
H	-0.2704869	0.3391699	0.9005537
C	-0.2918849	0.5717584	-1.2239537
H	-0.8763962	1.4865780	-1.2189076
H	0.0155938	0.1804880	-2.1867346
O	0.7513046	-1.1783535	0.0200549
H	0.9916455	-1.4707610	-0.8761176
C	3.2469211	-0.5142228	2.7142753
H	2.4646595	-0.4537041	3.4876675
H	4.0942279	0.1784759	2.8407485
O	3.1791608	-1.2990572	1.7766280
