11
-268.22 (energy)
C	-1.1877993	-0.7016933	0.1128281
H	-1.2577767	-1.5531409	-0.5536704
C	-2.1448606	-0.3449537	0.9699611
H	-3.0640193	-0.9193906	1.0311438
H	-2.0469982	0.5126998	1.6252750
O	-0.0011157	-0.0446627	-0.0364566
H	0.0177066	0.7088299	0.5785926
C	3.0588862	1.2769240	-0.9133687
H	3.7575128	0.5503619	-0.4686668
H	3.1503277	2.3108433	-0.5440377
O	2.2356466	0.9566798	-1.7615779
