11
-268.22 (energy)
C	-1.1882559	0.0711303	-0.7063704
H	-1.0805462	0.4819706	-1.7032099
C	-2.3479719	-0.3344347	-0.1882176
H	-3.2605861	-0.2636080	-0.7719064
H	-2.4255323	-0.7417870	0.8130971
O	0.0085366	0.0221539	-0.0525492
H	-0.1354812	-0.3515989	0.8339939
C	2.0234697	-0.4718988	-3.5032358
H	1.0156018	-0.1103993	-3.7625651
H	2.6398888	-0.8090442	-4.3518325
O	2.4313673	-0.4972794	-2.3488034
