11
-268.22 (energy)
C	-1.3744188	-0.1583679	0.0431650
H	-1.9262426	0.7430657	-0.1955567
C	-1.9458897	-1.3226686	0.3525702
H	-3.0277363	-1.4098687	0.3766084
H	-1.3677674	-2.2088375	0.5872230
O	-0.0268668	0.0493210	-0.0130653
H	0.4263956	-0.7827601	0.2073552
C	2.2282530	0.0683285	-2.1537550
H	2.9840584	-0.2940720	-1.4388037
H	1.9041648	-0.6615198	-2.9127308
O	1.7784004	1.2064270	-2.1078940
