11
-268.22 (energy)
C	0.0534006	0.0277415	0.0585378
H	-0.6358313	-0.3303135	-0.6969993
C	1.2145090	0.6240513	-0.2137643
H	1.5206447	0.7770028	-1.2440364
H	1.8845532	0.9723259	0.5636212
O	-0.4164669	-0.2084477	1.3177567
H	0.2315854	0.1278939	1.9606356
C	2.3973273	-2.4847502	1.2687812
H	2.6488123	-2.9962535	2.2115701
H	3.1934154	-1.8520610	0.8448661
O	1.3057817	-2.6110153	0.7281111
