11
-268.227 (energy)
C	-0.4608395	-0.6679342	-1.1213660
H	-0.2589061	-1.7324420	-1.1101406
C	-1.0929164	-0.0392092	-2.1128750
H	-1.4406377	-0.5958691	-2.9776255
H	-1.2811239	1.0279844	-2.0967955
O	0.0120092	-0.0563114	0.0031449
H	-0.1905947	0.8937031	-0.0499120
C	3.1705839	2.6433894	-0.3845906
H	3.4433362	1.6571973	-0.7929564
H	3.9873344	3.3814516	-0.3405606
O	2.0353469	2.9019521	-0.0049578
