11
-268.22 (energy)
C	0.3154304	-1.3611896	0.2191433
H	0.6143072	-2.0467285	-0.5649416
C	0.0177655	-0.0777340	0.0140970
H	0.0669691	0.3404143	-0.9865552
H	-0.2785000	0.5851512	0.8187042
O	0.2828163	-1.9761775	1.4368949
H	0.0108101	-1.3259837	2.1074557
C	3.0846153	-4.8995313	1.3878943
H	3.6414144	-5.0881953	2.3196195
H	3.6295677	-5.1200971	0.4561574
O	1.9366101	-4.4731243	1.3878897
