11
-268.219 (energy)
C	-1.0830774	-0.3631510	0.7816876
H	-1.9967203	0.1647924	0.5354915
C	-0.9884159	-1.2810531	1.7441850
H	-1.8595226	-1.5407495	2.3377377
H	-0.0601181	-1.7935046	1.9683264
O	-0.0471786	0.0294965	-0.0151403
H	0.7487581	-0.4681306	0.2402869
C	0.2814667	3.4983634	-2.3571244
H	0.2045475	4.4381257	-1.7873336
H	0.5370024	3.6089624	-3.4230631
O	0.0953572	2.4038993	-1.8401617
