11
-268.227 (energy)
C	0.0822596	0.0129711	-0.0106293
H	-0.9794516	-0.1544446	0.1265618
C	0.8026255	0.8672806	0.7167871
H	0.3298976	1.4475245	1.5031834
H	1.8644250	1.0141544	0.5568101
O	0.5851455	-0.7583171	-1.0178102
H	1.5367340	-0.5758896	-1.1049347
C	2.3854664	-2.4407831	1.6870735
H	1.3391740	-2.0962927	1.7052361
H	2.5465205	-3.4862763	1.9949070
O	3.3078784	-1.7103645	1.3473919
