11
-268.226 (energy)
C	-0.1264163	1.4083598	0.0299775
H	-0.7540757	1.9445940	0.7318156
C	-0.0062217	0.0807339	0.0004969
H	-0.5558956	-0.5324889	0.7078796
H	0.6299763	-0.4287956	-0.7137962
O	0.5218852	2.2611168	-0.8154241
H	1.0711029	1.7383914	-1.4249395
C	4.0377409	4.0348227	-2.4079168
H	5.0413066	4.3090857	-2.7703628
H	3.2907703	4.8445375	-2.4202729
O	3.7703576	2.9053425	-2.0173792
