29
-0.0035862 (energy)
C	0.2927956	-0.5987357	2.5462993
C	-0.7175662	-0.0945697	1.8266720
H	0.1863809	-0.7662937	3.6126427
H	1.2449592	-0.8542916	2.0883263
H	-1.6664355	0.1604148	2.2822285
C	-0.5728106	0.1341742	0.3731081
O	0.4297446	-0.1006627	-0.2799201
O	-1.7416798	0.6478011	-0.0842213
C	-1.7835503	0.9295767	-1.4904634
C	-1.2444444	2.3215206	-1.7621253
H	-2.8335153	0.8755664	-1.7963920
H	-1.2414389	0.1703062	-2.0659746
H	-1.7967190	3.0677989	-1.1816198
H	-1.3267166	2.5687895	-2.8242615
H	-0.1938672	2.4008195	-1.4652641
C	6.9523754	1.0260267	4.9141882
H	7.5691567	1.3504978	5.7469629
H	7.0127350	1.6110750	4.0038910
H	6.1653597	-0.5809674	5.9899876
C	6.1662815	-0.0492404	5.0389679
C	5.2915244	-0.6070775	4.0329198
C	5.1020487	-0.1552778	2.7885537
H	4.7362106	-1.4909051	4.3437621
H	5.6043760	0.7126441	2.3847147
O	4.2372575	-0.7820701	1.9289633
C	4.1771105	-0.1480763	0.6545852
H	3.4707622	-0.7039908	0.0312843
H	5.1566382	-0.1664063	0.1646411
H	3.8158440	0.8816559	0.7493262
