29
-0.00322303 (energy)
C	0.9582458	0.3365646	-3.4030974
C	0.3081105	0.4043408	-2.2345050
H	0.5486075	0.7987792	-4.2947488
H	1.9102627	-0.1800483	-3.4949588
H	-0.6404646	0.9187220	-2.1422060
C	0.8660892	-0.2257837	-1.0188863
O	1.9186930	-0.8387211	-0.9637137
O	0.0000000	0.0000000	0.0000000
C	0.3875350	-0.5418735	1.2707704
C	-0.0840985	-1.9786969	1.3934231
H	-0.0944324	0.0704311	2.0400080
H	1.4695771	-0.4604487	1.4261553
H	-1.1659545	-2.0429062	1.2372496
H	0.1545709	-2.3821901	2.3814889
H	0.3853942	-2.6124728	0.6344554
C	1.3563218	-5.1929036	-6.3346080
H	0.6830782	-5.9189307	-6.7805250
H	1.8972569	-5.5067523	-5.4494787
H	0.9070091	-3.7429890	-7.7681469
C	1.4886370	-3.9771948	-6.8770635
C	2.3363733	-2.9046465	-6.4085571
C	3.1480215	-2.9236110	-5.3458537
H	2.2935896	-1.9913262	-7.0003029
H	3.2617691	-3.7798121	-4.6957088
O	3.9035037	-1.8302341	-5.0091022
C	4.6991855	-2.0515294	-3.8482730
H	5.2680392	-1.1391851	-3.6470114
H	5.4084315	-2.8698135	-4.0133096
H	4.0676374	-2.2621124	-2.9784227
