29
-0.00189572 (energy)
C	1.7361137	0.0739538	-1.9769405
C	1.0288675	-0.9090215	-1.4055912
H	2.4099328	-0.1328340	-2.8013765
H	1.6582707	1.1029940	-1.6353553
H	1.1059733	-1.9344950	-1.7452390
C	0.1104124	-0.6275605	-0.2816046
O	-0.0828357	0.4708202	0.2112707
O	-0.4605164	-1.7999597	0.0908716
C	-1.3941941	-1.7139741	1.1769286
C	-0.6663918	-1.8252251	2.5035296
H	-2.0900402	-2.5523042	1.0676726
H	-1.9876847	-0.7940562	1.1211647
H	-0.0799822	-2.7490247	2.5440678
H	-1.3752125	-1.8201273	3.3363508
H	0.0357344	-0.9962025	2.6371995
C	7.1941006	3.0845224	1.8382423
H	8.2533243	3.1785954	1.6182204
H	6.7366996	2.1225422	1.6383816
H	7.0522344	5.0584749	2.5034889
C	6.5151206	4.1261379	2.3319389
C	5.1118871	4.1641247	2.6754612
C	4.2272764	3.1672288	2.5653089
H	4.7582199	5.1180125	3.0642607
H	4.4778109	2.1842505	2.1915534
O	2.9163970	3.3369738	2.9291904
C	2.1381279	2.1594244	2.7361097
H	1.1119985	2.3752317	3.0474910
H	2.5185322	1.3368062	3.3512906
H	2.1236874	1.8719315	1.6792383
