29
-0.00187641 (energy)
C	-2.2955606	0.7302311	-2.6095491
C	-1.7310405	0.4904241	-1.4193024
H	-3.3565181	0.9412121	-2.6891990
H	-1.7130267	0.7211597	-3.5272831
H	-2.3107508	0.4991453	-0.5045556
C	-0.2848727	0.2025788	-1.3103539
O	0.4959937	0.1564960	-2.2456802
O	0.0000000	0.0000000	0.0000000
C	1.3739043	-0.2897688	0.2951078
C	1.6342503	-1.7790485	0.1677930
H	1.5532498	0.0280837	1.3274551
H	2.0502281	0.2913886	-0.3424123
H	0.9524397	-2.3449266	0.8110982
H	2.6640140	-2.0180568	0.4479813
H	1.4626217	-2.1216639	-0.8575293
C	5.6739899	2.7935815	1.2866777
H	5.7730099	3.8382892	1.0074012
H	5.5692288	2.5777550	2.3435645
H	5.7944104	2.1463125	-0.6946627
C	5.6846687	1.8424870	0.3459235
C	5.5644322	0.4169544	0.5506544
C	5.4199377	-0.2210000	1.7171048
H	5.5976747	-0.1835020	-0.3573625
H	5.3757128	0.2828272	2.6725677
O	5.3166493	-1.5869993	1.7719272
C	5.1693035	-2.0715201	3.1035181
H	5.0940325	-3.1619769	3.0621536
H	4.2537325	-1.6805528	3.5603878
H	6.0421855	-1.8097284	3.7112845
