29
-0.00186494 (energy)
C	2.1384764	4.6068283	-0.5502616
C	2.0890378	3.3980425	0.0235591
H	2.7045269	5.4140759	-0.0981262
H	1.6167548	4.8163210	-1.4806287
H	2.6084263	3.1885836	0.9505243
C	1.3173598	2.2974592	-0.5923592
O	0.6816744	2.3781820	-1.6297111
O	1.4457221	1.2058489	0.2020767
C	0.7589486	0.0298318	-0.2495798
C	-0.6731465	0.0345672	0.2514436
H	1.2915455	-0.8314303	0.1669584
H	0.8015424	-0.0628309	-1.3409958
H	-0.6985503	0.1261424	1.3422662
H	-1.1881956	-0.8858479	-0.0377003
H	-1.2279729	0.8871788	-0.1527204
C	8.4905861	-4.2235469	-0.6659385
H	9.2649076	-4.9490905	-0.8966485
H	8.8145869	-3.2817948	-0.2385133
H	6.9673488	-5.4813679	-1.3418099
C	7.2068364	-4.5100624	-0.9100876
C	6.0648365	-3.6597956	-0.6623025
C	6.0743730	-2.4274789	-0.1429032
H	5.1022323	-4.0895983	-0.9358174
H	6.9758264	-1.9134382	0.1601660
O	4.9115972	-1.7247481	0.0408076
C	5.1347105	-0.4356100	0.6046773
H	4.1652511	0.0579050	0.7189762
H	5.7562469	0.1762888	-0.0579900
H	5.5971772	-0.5188235	1.5941407
