29
-0.00165222 (energy)
C	0.7357784	-1.5739923	-3.0973797
C	0.2097665	-1.2493143	-1.9096199
H	0.3690674	-2.4308177	-3.6522322
H	1.5411990	-0.9936512	-3.5402854
H	-0.5925731	-1.8270719	-1.4676366
C	0.7095288	-0.0815330	-1.1528831
O	1.6046875	0.6621824	-1.5165990
O	0.0000000	0.0000000	0.0000000
C	0.3511249	1.0896840	0.8648513
C	1.4938183	0.6865943	1.7779306
H	-0.5353253	1.3203380	1.4648020
H	0.5950473	1.9916036	0.2915865
H	1.2342781	-0.2140168	2.3440257
H	1.7300112	1.4899685	2.4813840
H	2.3937585	0.4516781	1.2008262
C	9.0827337	1.9328786	-4.5379433
H	9.7479082	2.2324135	-5.3423289
H	8.0234988	1.9020770	-4.7651845
H	10.6581544	1.6802852	-3.1913127
C	9.5796308	1.6230141	-3.3351174
C	8.8346753	1.2088052	-2.1680753
C	7.5096955	1.0568705	-2.0690018
H	9.4381488	1.0034082	-1.2850242
H	6.8247565	1.2352346	-2.8861626
O	6.9262630	0.6555629	-0.8950399
C	5.5087829	0.5540325	-0.9952762
H	5.1215737	0.2310269	-0.0246016
H	5.2245359	-0.1925054	-1.7447697
H	5.0654676	1.5262603	-1.2362796
