29
-0.00164232 (energy)
C	-2.5797453	0.2493615	-0.4588972
C	-1.8180890	-0.7449268	0.0145457
H	-3.6519077	0.1253971	-0.5665484
H	-2.1511681	1.2054771	-0.7484283
H	-2.2442983	-1.6978148	0.3030799
C	-0.3565129	-0.5763914	0.1612322
O	0.2674698	0.4324311	-0.1209626
O	0.1469315	-1.7347592	0.6551408
C	1.5657470	-1.7496434	0.8682338
C	2.2823206	-2.1612087	-0.4041967
H	1.7632435	-2.4843567	1.6557155
H	1.9244563	-0.7809098	1.2349387
H	1.9142080	-3.1303965	-0.7564655
H	3.3605910	-2.2329267	-0.2361688
H	2.1010968	-1.4404919	-1.2078463
C	6.5176634	-1.7664730	4.8839223
H	6.8199997	-2.3510749	5.7476628
H	6.0929536	-0.7887612	5.0795420
H	7.1113979	-3.2519305	3.5422579
C	6.6756597	-2.2591311	3.6502131
C	6.3270476	-1.6126687	2.4055963
C	5.7813647	-0.4015554	2.2509818
H	6.5406665	-2.1930722	1.5091331
H	5.5319453	0.2514577	3.0756459
O	5.4985600	0.0966757	1.0054235
C	4.9225396	1.3987371	1.0548419
H	4.7276436	1.7234586	0.0286624
H	5.6137771	2.1123821	1.5160982
H	3.9709780	1.3825458	1.5971575
