29
-0.00161431 (energy)
C	-0.1247699	0.0002824	2.6291227
C	0.1279477	-0.9467695	1.7169252
H	-0.1237270	-0.2336493	3.6882558
H	-0.3375467	1.0262307	2.3396062
H	0.3398813	-1.9691458	2.0045579
C	0.1264052	-0.6283129	0.2730731
O	-0.0948341	0.4713847	-0.2048700
O	0.4080106	-1.7694348	-0.4035047
C	0.4534680	-1.6444732	-1.8321354
C	-0.9346393	-1.8228222	-2.4180476
H	1.1132532	-2.4363509	-2.2016610
H	0.8968512	-0.6889129	-2.1352945
H	-1.3627796	-2.7815620	-2.1075008
H	-0.9017830	-1.7881528	-3.5106418
H	-1.6139985	-1.0410334	-2.0639224
C	7.4068717	1.6739788	-1.9985346
H	8.2773434	1.6170134	-2.6452559
H	6.7074683	2.4794757	-2.1897817
H	7.9878120	-0.0020976	-0.8974242
C	7.2357948	0.7765619	-1.0212482
C	6.1397125	0.7142057	-0.0814449
C	5.0902901	1.5401133	-0.0103088
H	6.1950301	-0.1018653	0.6376627
H	4.9432197	2.3786233	-0.6766258
O	4.1134881	1.3680702	0.9362042
C	3.0847094	2.3493766	0.8453329
H	2.3492091	2.1444136	1.6285968
H	2.5788918	2.2936527	-0.1246666
H	3.4900718	3.3538348	1.0083759
