29
-0.00155972 (energy)
C	1.1114120	-1.0214639	2.1562070
C	-0.1503383	-0.7252202	1.8198981
H	1.3427468	-1.4469261	3.1267503
H	1.9381490	-0.8463118	1.4724738
H	-0.9745202	-0.8992939	2.5005775
C	-0.4660461	-0.1450446	0.4970789
O	0.3496458	0.1088181	-0.3729278
O	-1.8068397	0.0502833	0.4393063
C	-2.2967484	0.6082634	-0.7884214
C	-2.2341501	2.1233173	-0.7370769
H	-3.3381165	0.2864548	-0.8929567
H	-1.7498721	0.2134727	-1.6525141
H	-2.7857081	2.5017584	0.1298091
H	-2.6601481	2.5600299	-1.6447397
H	-1.2012661	2.4705947	-0.6337498
C	4.3108898	-4.1222290	-3.0047022
H	4.1721171	-4.9806227	-3.6551765
H	5.3088639	-3.9609902	-2.6140417
H	2.3069355	-3.5556876	-3.1542550
C	3.2779651	-3.3215020	-2.7190175
C	3.2962494	-2.1473589	-1.8766584
C	4.3471128	-1.6392220	-1.2240069
H	2.3394368	-1.6367744	-1.7768560
H	5.3377292	-2.0707585	-1.2581006
O	4.2275032	-0.5118365	-0.4530832
C	5.4579762	-0.1330908	0.1569113
H	5.2799114	0.7682556	0.7504940
H	6.2130822	0.0984176	-0.6020844
H	5.8182365	-0.9209009	0.8272885
