29
-0.0015415 (energy)
C	2.0867540	-2.5364137	-1.3507944
C	1.5453197	-1.3617602	-1.0045060
H	2.9911898	-2.5770904	-1.9481463
H	1.6405376	-3.4798492	-1.0466823
H	1.9891962	-0.4214168	-1.3072100
C	0.3123301	-1.3059135	-0.1904153
O	-0.3020798	-2.2742640	0.2237209
O	0.0000000	0.0000000	0.0000000
C	-1.1779475	0.2450612	0.7816983
C	-2.4071454	0.2408272	-0.1076824
H	-1.0584270	1.2325913	1.2393392
H	-1.2721736	-0.4789934	1.5992900
H	-2.2981809	0.9695322	-0.9176460
H	-3.3037881	0.4851689	0.4688354
H	-2.5492988	-0.7378682	-0.5768039
C	5.1646671	0.4470869	-1.2726909
H	4.9441356	1.0277953	-0.3819845
H	5.0723892	0.9573354	-2.2243720
H	5.5984955	-1.2715239	-0.1693605
C	5.5302874	-0.8353089	-1.1654714
C	5.8555360	-1.7389303	-2.2453773
C	5.8528194	-1.4653945	-3.5544387
H	6.1296921	-2.7466522	-1.9363746
H	5.5960795	-0.4977517	-3.9624327
O	6.1839852	-2.4204373	-4.4806408
C	6.1204406	-1.9315854	-5.8172752
H	6.3965487	-2.7476747	-6.4912451
H	6.8288402	-1.1091846	-5.9645256
H	5.1033195	-1.6095859	-6.0655065
