29
-0.00150553 (energy)
C	-0.2466820	2.0681718	-1.6092443
C	0.2539409	1.9114754	-0.3772944
H	-0.2439220	3.0399979	-2.0909438
H	-0.6688093	1.2327063	-2.1619375
H	0.6745405	2.7433579	0.1740397
C	0.2501607	0.5869317	0.2797411
O	-0.1876802	-0.4403389	-0.2098726
O	0.8109637	0.7308375	1.5061216
C	0.8953607	-0.4676314	2.2904794
C	-0.3885451	-0.6736186	3.0722071
H	1.7319076	-0.3372414	2.9848306
H	1.1284574	-1.3377971	1.6659257
H	-0.6064431	0.2027145	3.6914697
H	-0.3122808	-1.5525408	3.7185221
H	-1.2411684	-0.8078363	2.3990454
C	3.8977839	-6.1344560	-2.4206042
H	3.9452612	-7.0983452	-2.9184777
H	4.3457038	-5.2941654	-2.9381420
H	2.8814533	-6.9196758	-0.7744967
C	3.3071303	-6.0237487	-1.2253699
C	3.1615606	-4.8216550	-0.4365129
C	3.5887933	-3.5939982	-0.7508407
H	2.6447784	-4.9533062	0.5130932
H	4.1110857	-3.3593234	-1.6678169
O	3.3845468	-2.5328135	0.0928407
C	3.9131926	-1.3144338	-0.4226105
H	3.7111485	-0.5219310	0.3037437
H	3.4261168	-1.0480088	-1.3668724
H	4.9975712	-1.3879900	-0.5588103
