29
-0.00148954 (energy)
C	1.9131594	-0.4379933	-1.7538063
C	1.6721738	-0.8924783	-0.5175835
H	2.7885723	-0.7639295	-2.3050829
H	1.2442233	0.2669607	-2.2408669
H	2.3382083	-1.5947069	-0.0316053
C	0.4790755	-0.4482450	0.2342805
O	-0.3594210	0.3362907	-0.1757663
O	0.4974930	-1.0638021	1.4425720
C	-0.6003551	-0.7503095	2.3115482
C	-0.2916655	0.4984755	3.1160293
H	-0.7260865	-1.6020055	2.9881142
H	-1.5360049	-0.6445640	1.7503291
H	0.6440740	0.3765162	3.6714056
H	-1.0971663	0.7125982	3.8240998
H	-0.1624873	1.3658708	2.4609982
C	5.6595935	-1.5856255	-1.8318476
H	5.6564505	-0.8274195	-1.0544621
H	5.6821967	-2.6192351	-1.5067228
H	5.6142056	-0.1645345	-3.3607715
C	5.6361985	-1.2270565	-3.1204880
C	5.6366126	-2.1068708	-4.2669790
C	5.6604136	-3.4439632	-4.2575623
H	5.6149415	-1.6048249	-5.2332232
H	5.6828503	-4.0351093	-3.3527144
O	5.6577045	-4.1629668	-5.4248903
C	5.6855736	-5.5696436	-5.2010843
H	5.6815405	-6.0688978	-6.1743272
H	4.7986943	-5.8924822	-4.6451381
H	6.5977049	-5.8606263	-4.6689347
