29
-0.00145658 (energy)
C	0.2906913	-0.5524029	-0.0244381
C	-0.3910309	0.5998711	-0.0045087
H	1.2973116	-0.6097364	0.3754576
H	-0.1396095	-1.4605085	-0.4389852
H	0.0370238	1.5050502	0.4081918
C	-1.7631420	0.6784642	-0.5497243
O	-2.3772734	-0.2502781	-1.0467067
O	-2.1970199	1.9544094	-0.3982921
C	-3.5258427	2.2146817	-0.8727982
C	-3.4959853	2.5638591	-2.3489848
H	-3.9085824	3.0664330	-0.3009889
H	-4.1934200	1.3681574	-0.6744881
H	-2.8266329	3.4112452	-2.5301737
H	-4.4967589	2.8216220	-2.7068315
H	-3.1173900	1.7262353	-2.9432738
C	4.1133394	0.3915888	0.1602680
H	4.0352631	-0.0952901	-0.8072378
H	4.0674864	1.4743652	0.1679286
H	4.2953553	-1.4244751	1.1741465
C	4.2585493	-0.3398349	1.2709644
C	4.3760261	0.1511756	2.6250777
C	4.3619244	1.4274559	3.0243030
H	4.4871857	-0.6193407	3.3867178
H	4.2566456	2.2642525	2.3479933
O	4.4832640	1.7590072	4.3490590
C	4.4449069	3.1664305	4.5665303
H	4.5470512	3.3474228	5.6404396
H	3.4878497	3.5848345	4.2366280
H	5.2763028	3.6618667	4.0535375
