29
-0.00139486 (energy)
C	2.3270736	-1.0975887	-4.4134753
C	1.6703104	-0.2477909	-3.6138607
H	2.4067742	-0.9095331	-5.4787316
H	2.7978476	-1.9964864	-4.0235800
H	1.2009082	0.6478937	-4.0015625
C	1.5612739	-0.5039109	-2.1617452
O	2.0334834	-1.4653775	-1.5792410
O	0.8475933	0.5109893	-1.6141544
C	0.6458897	0.4284803	-0.1959952
C	-0.5884693	-0.3988413	0.1103381
H	0.5023251	1.4515887	0.1667367
H	1.5321091	0.0290500	0.3106213
H	-1.4643580	0.0134398	-0.4012951
H	-0.7848087	-0.4187871	1.1860225
H	-0.4689623	-1.4281981	-0.2421813
C	3.8453162	-0.8623710	2.3568729
H	4.2644778	-0.4284694	1.4539624
H	3.7846424	-1.9436942	2.3971789
H	3.5297279	1.0069809	3.2315701
C	3.4327137	-0.0713655	3.3537593
C	2.8561811	-0.4884117	4.6116136
C	2.6260544	-1.7418014	5.0172327
H	2.5875438	0.3227042	5.2869452
H	2.8564824	-2.6145027	4.4222517
O	2.0699320	-2.0011345	6.2432434
C	1.9067145	-3.3954063	6.4860843
H	1.4605619	-3.5179393	7.4772484
H	2.8751427	-3.9072200	6.4790597
H	1.2323433	-3.8423059	5.7476116
