29
-0.00129066 (energy)
C	0.1253160	-5.1070387	-0.0344655
C	0.1480429	-3.9379647	0.6179355
H	0.4643478	-6.0184511	0.4460271
H	-0.2309153	-5.1796221	-1.0589139
H	0.5029304	-3.8648083	1.6385259
C	-0.3138270	-2.6953300	-0.0367868
O	-0.7381642	-2.6164519	-1.1771496
O	-0.1744342	-1.6813744	0.8529782
C	-0.5836243	-0.3885104	0.3842205
C	0.5629173	0.2938724	-0.3380949
H	-0.8637714	0.1974370	1.2657641
H	-1.4736169	-0.4578997	-0.2519303
H	1.4429102	0.3566518	0.3104393
H	0.2798489	1.3037951	-0.6478887
H	0.8611836	-0.2731455	-1.2255943
C	5.4182324	2.5952690	4.6433792
H	5.5153028	2.9557574	5.6631046
H	6.3340312	2.4851684	4.0743834
H	3.3402843	2.4487376	4.7841905
C	4.2106060	2.3096919	4.1435820
C	3.9129801	1.8240833	2.8153810
C	4.7864826	1.5684396	1.8355286
H	2.8563882	1.6549885	2.6124817
H	5.8543405	1.7034207	1.9363580
O	4.3688883	1.1081514	0.6134902
C	5.4497361	0.8981009	-0.2905299
H	5.0366448	0.5336950	-1.2355361
H	6.1398910	0.1413153	0.0978224
H	5.9808209	1.8359363	-0.4861097
