29
-0.00124827 (energy)
C	-2.8526705	2.1047050	-0.2122969
C	-1.8534949	1.2566302	-0.4866962
H	-3.5577445	2.4005874	-0.9815904
H	-2.9881752	2.5207768	0.7827842
H	-1.7177455	0.8417892	-1.4778474
C	-0.8920543	0.8532332	0.5616496
O	-0.9125326	1.2343009	1.7196993
O	0.0000000	0.0000000	0.0000000
C	1.0138455	-0.5017474	0.8826293
C	2.1906633	0.4548803	0.9262939
H	1.3390407	-1.4668528	0.4804408
H	0.6127095	-0.6898853	1.8852677
H	2.5804331	0.6311920	-0.0816342
H	2.9940102	0.0531933	1.5502530
H	1.8908804	1.4285245	1.3266369
C	6.5547827	-5.3670249	0.8381898
H	6.7474593	-6.4096665	1.0726865
H	7.4198563	-4.7300849	0.6949384
H	4.4843830	-5.6299258	0.8973167
C	5.2971609	-4.9219623	0.7380917
C	4.8745441	-3.5736475	0.4348470
C	5.6587922	-2.5167990	0.1971555
H	3.7961249	-3.4251735	0.4014536
H	6.7389644	-2.5597162	0.2068085
O	5.1258090	-1.2844294	-0.0800124
C	6.1250532	-0.2937371	-0.3028248
H	5.6224875	0.6541310	-0.5160066
H	6.7463357	-0.5555100	-1.1661548
H	6.7463347	-0.1606653	0.5894414
