29
-0.00123586 (energy)
C	0.1324337	0.8879698	2.4742322
C	0.2853745	-0.3201249	1.9174610
H	0.2344879	1.0232628	3.5455719
H	-0.0972508	1.7652841	1.8748756
H	0.5140720	-1.1946743	2.5139193
C	0.1461254	-0.5049785	0.4571306
O	-0.1096289	0.3788544	-0.3429571
O	0.3488582	-1.8178452	0.1841867
C	0.2559211	-2.1816705	-1.2006099
C	-1.1844671	-2.4872563	-1.5664544
H	0.8684906	-3.0788755	-1.3374228
H	0.6771909	-1.4030132	-1.8469954
H	-1.5898786	-3.2670727	-0.9134206
H	-1.2580562	-2.8227316	-2.6047630
H	-1.8181208	-1.6038836	-1.4389272
C	4.6714022	2.7897443	3.6020238
H	4.9246531	3.2794008	4.5376065
H	4.7773699	3.3779215	2.6979307
H	4.1732106	1.0000812	4.5549556
C	4.2515374	1.5195381	3.6003864
C	3.8780331	0.7297257	2.4492105
C	3.8811516	1.1177867	1.1694175
H	3.5632026	-0.2888839	2.6716151
H	4.1759820	2.1060178	0.8451008
O	3.5008523	0.2634364	0.1668777
C	3.5738236	0.8656384	-1.1221659
H	3.2567507	0.1248938	-1.8619193
H	4.6017366	1.1649763	-1.3537851
H	2.9004550	1.7271179	-1.1874772
