29
-0.00120442 (energy)
C	-0.1674069	-0.5144613	-0.3123335
C	0.2533986	0.5902750	0.3164418
H	-1.1127129	-0.9772951	-0.0502849
H	0.4204995	-0.9794260	-1.0996311
H	-0.3316750	1.0540206	1.1009994
C	1.5420310	1.2213487	-0.0403471
O	2.3096957	0.8181360	-0.8975645
O	1.7052195	2.3085275	0.7537750
C	2.9127040	3.0533746	0.5396453
C	4.0417703	2.4705394	1.3687748
H	2.7149289	4.0819297	0.8588558
H	3.1747961	3.0915376	-0.5240469
H	3.7652736	2.4406198	2.4278214
H	4.9518853	3.0667803	1.2581804
H	4.2596882	1.4410884	1.0673285
C	3.7827411	-2.5249372	0.0515578
H	3.7929855	-1.4775407	0.3380366
H	3.7588027	-3.2515311	0.8553327
H	3.8234450	-2.0737962	-1.9865744
C	3.7995133	-2.8682799	-1.2413256
C	3.7893860	-4.2074330	-1.7845395
C	3.7613798	-5.3555655	-1.0993544
H	3.8068345	-4.2638147	-2.8720431
H	3.7425118	-5.4070986	-0.0196807
O	3.7547627	-6.5666114	-1.7419677
C	3.7237587	-7.6661844	-0.8366592
H	3.7203355	-8.5894756	-1.4231696
H	2.8139176	-7.6424033	-0.2271680
H	4.6129283	-7.6682605	-0.1969633
