29
-0.00260132 (energy)
C	0.2787353	2.4284689	-0.9760632
C	-0.7764314	1.7145402	-0.5639869
H	0.1541806	3.4384127	-1.3515463
H	1.2864442	2.0217926	-0.9477661
H	-1.7807100	2.1189433	-0.5919951
C	-0.6070650	0.3377317	-0.0522846
O	0.4554436	-0.2533794	0.0392259
O	-1.8334145	-0.1331517	0.2846929
C	-1.8587823	-1.4679539	0.8103612
C	-1.9534659	-2.4747292	-0.3207365
H	-2.7468830	-1.5444876	1.4462508
H	-0.9887898	-1.6622929	1.4482758
H	-2.8274071	-2.2681230	-0.9472075
H	-2.0329432	-3.4924666	0.0716126
H	-1.0749177	-2.4186347	-0.9712238
C	2.9906528	-5.8806417	-1.2748521
H	2.6263423	-6.8581779	-1.5763736
H	2.3863924	-5.0257529	-1.5552093
H	4.6814997	-6.6828029	-0.3492484
C	4.1350101	-5.7715974	-0.5905505
C	4.7520526	-4.5529609	-0.1186411
C	4.2972284	-3.3052302	-0.2760392
H	5.6881255	-4.6893646	0.4210896
H	3.3801526	-3.0642858	-0.7952932
O	4.9846360	-2.2298598	0.2246377
C	4.3361045	-0.9909803	-0.0477407
H	4.9427453	-0.1881569	0.3811349
H	3.3453451	-0.9600910	0.4184110
H	4.2565256	-0.8229231	-1.1272136
