29
-0.0010852 (energy)
C	0.1283111	-0.4353828	0.4292153
C	-0.1801211	0.4452853	-0.5310820
H	0.6699791	-0.1240425	1.3158669
H	-0.1521158	-1.4827560	0.3515383
H	0.0990290	1.4888904	-0.4544954
C	-0.9182984	0.0212146	-1.7399592
O	-1.2985245	-1.1141599	-1.9703159
O	-1.0844122	1.1121266	-2.5283342
C	-1.7928220	0.8847096	-3.7551613
C	-0.8310950	0.4384479	-4.8404608
H	-2.2529239	1.8365974	-4.0400330
H	-2.6061127	0.1625861	-3.6184668
H	-0.0262870	1.1702453	-4.9656884
H	-1.3516316	0.3192982	-5.7948657
H	-0.3581362	-0.5134832	-4.5791858
C	0.6840533	-5.2104350	1.2526842
H	0.0011627	-6.0236566	1.0256479
H	1.6433491	-5.2222630	0.7485241
H	-0.6570196	-4.3188497	2.5815059
C	0.3271864	-4.2550099	2.1184336
C	1.1146005	-3.1136075	2.5254894
C	2.3471399	-2.7962520	2.1148762
H	0.6320982	-2.4538882	3.2452877
H	2.9105053	-3.3846432	1.4041567
O	2.9859142	-1.6770757	2.5828930
C	4.2869771	-1.5162595	2.0252380
H	4.7271912	-0.6075167	2.4457980
H	4.2320619	-1.4003174	0.9373972
H	4.9299049	-2.3633329	2.2878182
