29
-0.000933779 (energy)
C	-4.6947914	0.6294029	1.9135105
C	-3.4548286	0.1298274	1.9896308
H	-5.4927081	0.2331436	2.5322152
H	-4.9396764	1.4419897	1.2342479
H	-3.2100950	-0.6798168	2.6660061
C	-2.3669400	0.6695849	1.1462530
O	-2.4857576	1.5755978	0.3389525
O	-1.2371028	-0.0234887	1.4331936
C	-0.0673859	0.3738909	0.7034542
C	0.0005503	-0.3648912	-0.6199993
H	0.7988296	0.1078566	1.3181349
H	-0.0373323	1.4599940	0.5583114
H	-0.0289867	-1.4473940	-0.4580101
H	0.9189366	-0.1132973	-1.1578756
H	-0.8556472	-0.1143169	-1.2542435
C	4.7974590	-2.7125430	0.2931958
H	4.9419300	-3.7769557	0.1339221
H	4.9747404	-2.3395369	1.2951957
H	4.2613580	-2.3831854	-1.6976048
C	4.4182146	-1.9266230	-0.7208143
C	4.1845235	-0.5012248	-0.6745187
C	4.3027491	0.3013683	0.3886549
H	3.8799852	-0.0531770	-1.6193241
H	4.5984053	-0.0449156	1.3691557
O	4.0495145	1.6455780	0.2959163
C	4.2316936	2.3234336	1.5356454
H	4.0118935	3.3834517	1.3790492
H	5.2680270	2.2340346	1.8789772
H	3.5425058	1.9376397	2.2946058
