29
-0.000628288 (energy)
C	3.3113442	-1.8383610	-3.4284348
C	2.4837435	-0.8791989	-2.9948880
H	3.6430103	-1.8615354	-4.4608827
H	3.6745730	-2.6187450	-2.7645603
H	2.1213204	-0.1014608	-3.6557017
C	2.0312491	-0.8474019	-1.5876340
O	2.3498674	-1.6508090	-0.7275582
O	1.2086592	0.2207532	-1.4406353
C	0.6744578	0.4113816	-0.1226985
C	-0.5982333	-0.3966053	0.0486431
H	0.4496291	1.4780662	-0.0198792
H	1.4138442	0.1628770	0.6474592
H	-1.3263768	-0.1360223	-0.7264883
H	-1.0454779	-0.2123312	1.0294892
H	-0.3992103	-1.4685283	-0.0488162
C	8.1841473	-6.8289762	1.7362718
H	8.7746867	-7.7239191	1.9081874
H	8.4312475	-5.9581062	2.3321683
H	7.0224450	-7.7535569	0.2683596
C	7.2050910	-6.8346444	0.8246088
C	6.3341402	-5.7345408	0.4785857
C	6.3414130	-4.5043104	1.0029436
H	5.6000066	-5.9537534	-0.2954565
H	7.0289096	-4.1874817	1.7747434
O	5.4546175	-3.5471977	0.5820434
C	5.6247753	-2.3068703	1.2619257
H	4.8854134	-1.6012655	0.8721327
H	6.6232388	-1.8960372	1.0771485
H	5.4530366	-2.4261674	2.3371521
