29
-0.00234258 (energy)
C	1.6317034	1.9480137	-0.6860325
C	0.2986331	1.8236818	-0.6675164
H	2.0995754	2.8688886	-1.0170509
H	2.2828763	1.1360893	-0.3723187
H	-0.3507849	2.6320690	-0.9800357
C	-0.3395039	0.5684760	-0.2165559
O	0.2547090	-0.4264926	0.1624686
O	-1.6829193	0.7305536	-0.3070211
C	-2.4693928	-0.3985684	0.0994403
C	-2.6613039	-1.3503029	-1.0664562
H	-3.4415029	-0.0116913	0.4223394
H	-2.0226954	-0.9063385	0.9621225
H	-3.1092262	-0.8288485	-1.9187333
H	-3.3087685	-2.1849334	-0.7832154
H	-1.7020263	-1.7523385	-1.4074564
C	3.9450136	-4.1004188	-3.1642478
H	3.8051011	-4.8117750	-3.9727100
H	3.8628436	-4.4853805	-2.1544862
H	4.2711886	-2.5128010	-4.4803965
C	4.2052310	-2.8166421	-3.4361250
C	4.4157493	-1.7520967	-2.4816931
C	4.3904776	-1.8478786	-1.1480296
H	4.6149484	-0.7744018	-2.9182476
H	4.2018168	-2.7712839	-0.6184669
O	4.6079182	-0.7525386	-0.3526819
C	4.5391807	-1.0625435	1.0361225
H	4.7222235	-0.1428317	1.5992374
H	5.3085474	-1.7925433	1.3100402
H	3.5446552	-1.4366739	1.3021741
