29
-0.00221906 (energy)
C	0.2906913	-0.5322734	-0.1497708
C	-0.3910309	0.5850920	0.1324121
H	1.2973116	-0.6792932	0.2265121
H	-0.1396095	-1.3219109	-0.7604897
H	0.0370238	1.3723014	0.7406656
C	-1.7631420	0.7859518	-0.3805132
O	-2.3772734	-0.0049792	-1.0762013
O	-2.1970199	1.9937400	0.0579108
C	-3.5258427	2.3553660	-0.3447358
C	-3.4959853	3.0319898	-1.7023926
H	-3.9085824	3.0542703	0.4062495
H	-4.1934200	1.4859235	-0.3447032
H	-2.8266329	3.8983670	-1.6855587
H	-4.4967589	3.3645682	-1.9920262
H	-3.1173900	2.3519674	-2.4720434
C	5.4173782	-0.3046008	4.7775783
H	5.5742518	-0.4063418	5.8472763
H	6.1217044	0.3168886	4.2369848
H	3.7316988	-1.5362495	4.8039300
C	4.3934468	-0.9301232	4.1859709
C	4.0493604	-0.8972732	2.7827459
C	4.6878800	-0.2366462	1.8109766
H	3.1713323	-1.4809392	2.5097106
H	5.5673353	0.3694198	1.9781575
O	4.2539353	-0.2901184	0.5115687
C	5.0675005	0.4794577	-0.3690389
H	4.6583212	0.3856131	-1.3791074
H	6.0957300	0.1019386	-0.3779363
H	5.0509484	1.5380655	-0.0881239
