40
-0.00331632 (energy)
C	-1.2592577	1.7526388	1.6094843
H	-1.7777376	-0.2052253	2.1142183
C	-1.2380381	0.4273907	1.4124045
H	-0.7811131	2.4525837	0.9323987
H	-1.7872707	2.1712127	2.4608202
C	-0.6001374	-0.2633654	0.3045782
C	0.5159135	0.1732035	-0.3090726
H	1.0028388	1.0735425	0.0535143
O	-1.2820754	-1.3969193	-0.0997516
C	-0.8278775	-2.5607117	0.5914761
H	-1.3658502	-3.4226211	0.1858750
H	-1.0511170	-2.4944857	1.6614005
H	0.2437646	-2.7273556	0.4413603
S	1.2389008	-0.6219590	-1.6742867
C	2.4806440	0.5899394	-2.0817506
C	3.7873744	0.4448027	-1.6056543
C	4.7614149	1.3927123	-1.9263179
H	4.0555956	-0.4060261	-0.9841916
C	4.4341947	2.4859738	-2.7275579
H	5.7758179	1.2756365	-1.5537753
C	2.1600480	1.6843520	-2.8915988
C	3.1347392	2.6315878	-3.2115471
H	5.1935066	3.2222020	-2.9791577
H	2.8802582	3.4801409	-3.8413886
H	1.1510727	1.8047227	-3.2791441
C	2.6309427	-4.2117482	-1.6881928
C	3.6846146	-4.8980741	-1.2281820
H	1.8119803	-4.7187878	-2.1868906
H	2.5630745	-3.1324896	-1.5774749
H	3.7530325	-5.9733003	-1.3382245
C	4.8012690	-4.2072279	-0.5485200
O	4.8697662	-3.0059798	-0.3509794
O	5.7167674	-5.1443879	-0.1980751
C	6.8775745	-4.6482883	0.4838925
C	7.9307834	-4.2177930	-0.5197847
H	7.2655107	-5.4702454	1.0944890
H	6.6196716	-3.8325377	1.1691857
H	8.1782571	-5.0432078	-1.1953381
H	8.8423672	-3.8931730	-0.0101960
H	7.5666948	-3.3946716	-1.1427117
