40
-0.00259392 (energy)
C	-5.4073821	-2.9802479	0.7748285
H	-6.4808693	-2.8773713	-1.0123064
C	-5.6509002	-2.4686601	-0.4394820
H	-4.6255197	-2.6001315	1.4238222
H	-6.0157072	-3.7936541	1.1583459
C	-4.9399461	-1.3647486	-1.0617875
C	-3.6363339	-1.0997309	-0.8542061
H	-3.0563387	-1.7589899	-0.2153328
O	-5.7478299	-0.5713467	-1.8563337
C	-5.7662635	-1.0254681	-3.2098249
H	-6.3745319	-0.3252418	-3.7899173
H	-6.2252824	-2.0166931	-3.2855515
H	-4.7612407	-1.0432031	-3.6438023
S	-2.8063072	0.2586460	-1.5503894
C	-1.2529289	0.1119941	-0.6889026
C	-0.1768994	-0.5504504	-1.2877384
C	1.0412094	-0.6638209	-0.6143359
H	-0.2791090	-0.9807931	-2.2809285
C	1.1895885	-0.1115718	0.6573889
H	1.8747520	-1.1797856	-1.0839053
C	-1.0959224	0.6708924	0.5836368
C	0.1224621	0.5568866	1.2560857
H	2.1389269	-0.1977312	1.1800955
H	0.2391224	0.9931702	2.2447971
H	-1.9198744	1.1992777	1.0575819
C	5.4337569	-0.1030218	3.9756713
C	5.3545621	-1.4196860	4.2058912
H	5.9774809	0.5478238	4.6518755
H	4.9591672	0.3524034	3.1102141
H	5.8269908	-1.8741460	5.0679696
C	4.6132978	-2.3071710	3.2844664
O	4.0300687	-1.9460129	2.2764387
O	4.7008379	-3.5717003	3.7666700
C	4.0361250	-4.5765653	2.9875225
C	2.5808933	-4.6841578	3.4030558
H	4.5464353	-5.5247817	3.1860293
H	4.1328397	-4.3779326	1.9138461
H	2.5013757	-4.8839262	4.4766921
H	2.0798824	-5.4879532	2.8562973
H	2.0477565	-3.7472397	3.2131165
