40
-0.00257011 (energy)
C	-1.1177804	0.9880875	-2.2410182
H	-2.3343585	-0.4895578	-1.4083648
C	-1.3780901	0.0258311	-1.3455437
H	-0.1724069	1.5194794	-2.2707114
H	-1.8563234	1.2515196	-2.9919725
C	-0.4747823	-0.4476820	-0.3105748
C	0.4339475	0.3312568	0.3060239
H	0.4862131	1.3862553	0.0541860
O	-0.6008343	-1.8004186	-0.0504191
C	-1.5536306	-2.0526195	0.9825758
H	-1.5620104	-3.1295172	1.1750221
H	-2.5602150	-1.7562460	0.6696690
H	-1.2847519	-1.5429183	1.9135058
S	1.5550548	-0.2539983	1.4974090
C	2.5559517	1.2086735	1.6856833
C	2.2933901	2.1116026	2.7206021
C	3.0785567	3.2567055	2.8701530
H	1.4782748	1.9294163	3.4166361
C	4.1314531	3.5008447	1.9891963
H	2.8705149	3.9557203	3.6761338
C	3.6183522	1.4546324	0.8097928
C	4.4027429	2.5999503	0.9602043
H	4.7441203	4.3910616	2.1076952
H	5.2272316	2.7862091	0.2768089
H	3.8423301	0.7557951	0.0071895
C	9.0192525	1.9798790	0.1130955
C	9.1805822	3.1837769	-0.4503584
H	9.7591487	1.5841574	0.8004426
H	8.1481374	1.3651046	-0.0987407
H	10.0482378	3.7967977	-0.2399274
C	8.1723154	3.7234464	-1.3875248
O	7.1476424	3.1542245	-1.7232968
O	8.5979505	4.9444280	-1.7964952
C	7.7307600	5.6242641	-2.7154463
C	8.0470786	5.2081160	-4.1397730
H	7.9157042	6.6968510	-2.5959100
H	6.6761865	5.4506627	-2.4718752
H	9.1026536	5.3889853	-4.3677490
H	7.4316067	5.7646670	-4.8521557
H	7.8686785	4.1380058	-4.2852543
