40
-0.00255496 (energy)
C	4.6290877	-2.7810521	3.0918140
H	5.1922188	-1.5534955	4.6832907
C	4.6522381	-1.6086092	3.7402082
H	4.1479826	-2.9070313	2.1276267
H	5.1223845	-3.6506775	3.5151159
C	4.0638050	-0.3629538	3.2782240
C	2.9514602	-0.2933692	2.5228589
H	2.4288939	-1.2090508	2.2628060
O	4.7892208	0.7555519	3.6472545
C	4.3520877	1.2776823	4.9021644
H	4.9256295	2.1869631	5.1048290
H	4.5456666	0.5670362	5.7123923
H	3.2900729	1.5430519	4.8815358
S	2.2877226	1.1947058	1.9196272
C	1.0214953	0.5286106	0.8567838
C	-0.2921742	0.4060730	1.3199614
C	-1.2853130	-0.1136287	0.4870759
H	-0.5509561	0.7148219	2.3298001
C	-0.9701387	-0.5080305	-0.8126901
H	-2.3050481	-0.2070470	0.8516598
C	1.3302378	0.1387788	-0.4505357
C	0.3364504	-0.3807967	-1.2824453
H	-1.7442163	-0.9100219	-1.4616090
H	0.5817858	-0.6821157	-2.2975909
H	2.3448378	0.2388993	-0.8290519
C	0.9757219	2.6154842	-5.1955737
C	0.2293073	1.8042437	-5.9555945
H	0.9108480	3.6929061	-5.3025390
H	1.6655034	2.2232140	-4.4526138
H	-0.4580302	2.1942769	-6.6960965
C	0.3176217	0.3355052	-5.8102203
O	1.0424050	-0.2517103	-5.0249953
O	-0.5401111	-0.2216147	-6.7007988
C	-0.5898405	-1.6555485	-6.6954729
C	0.4818065	-2.2203049	-7.6090189
H	-1.5789072	-1.9426942	-7.0672665
H	-0.5004355	-2.0542381	-5.6782989
H	0.3780692	-1.8139428	-8.6204702
H	0.4144302	-3.3107666	-7.6579834
H	1.4817603	-1.9474547	-7.2572056
