40
-0.00239992 (energy)
C	-1.0103463	1.6650226	-3.4805994
H	0.3510255	1.8492160	-1.9091194
C	-0.4367954	1.2394626	-2.3467955
H	-1.8293227	1.1359623	-3.9563755
H	-0.6764063	2.5845324	-3.9515138
C	-0.8024592	0.0501766	-1.5963096
C	-1.2798440	-1.0754526	-2.1600402
H	-1.3708138	-1.1299426	-3.2407489
O	-0.6617456	0.2008209	-0.2284747
C	0.6366091	-0.1941209	0.2151476
H	0.6602178	-0.1034425	1.3051176
H	1.4094265	0.4632745	-0.1966101
H	0.8527400	-1.2356394	-0.0441755
S	-1.7756900	-2.4720479	-1.2531434
C	-2.4839252	-3.4317420	-2.5775454
C	-1.7222551	-4.4129049	-3.2197718
C	-2.2771509	-5.1668038	-4.2560342
H	-0.6943031	-4.5973830	-2.9175293
C	-3.5961846	-4.9461415	-4.6506704
H	-1.6810803	-5.9283218	-4.7523187
C	-3.8089950	-3.2201827	-2.9722699
C	-4.3627970	-3.9745184	-4.0085742
H	-4.0285722	-5.5351853	-5.4556284
H	-5.3930910	-3.8061171	-4.3112927
H	-4.4176937	-2.4688585	-2.4745654
C	2.1644569	0.2660592	5.4263527
C	3.4156416	0.4855473	5.0029857
H	1.8810256	0.4709760	6.4530776
H	1.3984158	-0.1216858	4.7596456
H	4.1794252	0.8716986	5.6666298
C	3.8024280	0.2061363	3.6035387
O	3.0586832	-0.2302984	2.7415182
O	5.1152005	0.5175308	3.4661341
C	5.6644348	0.3115068	2.1567207
C	6.1477364	-1.1192218	2.0105061
H	6.5110487	0.9981534	2.0532929
H	4.9414962	0.5723170	1.3751022
H	6.8694754	-1.3635029	2.7968552
H	6.6217786	-1.2708083	1.0366739
H	5.3179499	-1.8262390	2.1090372
