40
-0.00232536 (energy)
C	0.4035380	-3.8771000	0.8443485
H	-0.4235070	-2.1134423	1.5942269
C	0.0680782	-2.5835955	0.7449205
H	0.9321577	-4.4065154	0.0586827
H	0.1685072	-4.4360437	1.7449689
C	0.3468589	-1.7110358	-0.3830251
C	0.4002896	-2.1309018	-1.6611437
H	0.1906454	-3.1722794	-1.8864389
O	0.6061262	-0.4035774	-0.0131611
C	-0.5845244	0.3839920	0.0111319
H	-0.3011991	1.4122203	0.2546228
H	-1.2740908	0.0300821	0.7845696
H	-1.0845384	0.3906346	-0.9628618
S	0.7968054	-1.0964078	-2.9995758
C	0.9043469	-2.3265009	-4.2848603
C	-0.1953588	-2.5776236	-5.1112145
C	-0.1111726	-3.5396639	-6.1199285
H	-1.1226863	-2.0263257	-4.9762982
C	1.0734297	-4.2503863	-6.3093232
H	-0.9687405	-3.7314161	-6.7597070
C	2.0925970	-3.0368272	-4.4845431
C	2.1756483	-3.9985803	-5.4933934
H	1.1393410	-4.9973065	-7.0965048
H	3.1015174	-4.5476554	-5.6443443
H	2.9601623	-2.8444708	-3.8576131
C	8.9994108	2.7323048	-0.3168311
C	7.7603639	2.6171245	-0.8111731
H	9.7953491	3.1715567	-0.9084628
H	9.2454971	2.3917763	0.6857384
H	7.5144355	2.9560169	-1.8099588
C	6.6751732	2.0182211	-0.0050703
O	6.7955720	1.5911069	1.1306183
O	5.5457279	2.0308280	-0.7556784
C	4.3785248	1.4863612	-0.1233330
C	4.3188067	-0.0145222	-0.3371699
H	3.5100455	1.9596953	-0.5930503
H	4.3464225	1.7410758	0.9423497
H	4.3503026	-0.2522250	-1.4055475
H	3.4023785	-0.4309850	0.0903366
H	5.1774012	-0.5117224	0.1251448
