40
-0.0021497 (energy)
C	-0.2035311	-0.5233776	0.2698105
H	-0.2599578	1.0811854	-1.0639824
C	0.2976608	0.5990627	-0.2635822
H	0.2705273	-1.0401952	1.0975534
H	-1.1313561	-0.9421601	-0.1077297
C	1.5070341	1.2832025	0.1615169
C	2.5852501	0.6559130	0.6681603
H	2.5840659	-0.4277198	0.7382628
O	1.4279795	2.6592325	0.0442205
C	1.8928116	3.1079177	-1.2290105
H	1.8557676	4.2012735	-1.2329544
H	1.2461043	2.7438290	-2.0340999
H	2.9280576	2.8021006	-1.4119406
S	4.0041486	1.4835827	1.2342816
C	4.8713009	0.1003555	1.9493900
C	5.8485270	-0.5743627	1.2111075
C	6.5299837	-1.6568135	1.7714911
H	6.0862186	-0.2617634	0.1972769
C	6.2406811	-2.0655162	3.0728540
H	7.2887372	-2.1782246	1.1936227
C	4.5908509	-0.3089977	3.2571180
C	5.2727831	-1.3914906	3.8164240
H	6.7733949	-2.9065466	3.5096297
H	5.0510263	-1.7053980	4.8331783
H	3.8418617	0.2130886	3.8480095
C	-2.7046962	-4.7396191	0.0432794
C	-3.9513602	-4.4458782	-0.3471343
H	-2.4537250	-5.7321271	0.4016497
H	-1.9101503	-3.9983397	0.0138611
H	-4.7435227	-5.1838018	-0.3179928
C	-4.2938991	-3.0929968	-0.8355039
O	-3.5151876	-2.1590481	-0.9252789
O	-5.6121986	-3.0885230	-1.1537560
C	-6.1216640	-1.8444771	-1.6552163
C	-6.5547542	-0.9542009	-0.5055275
H	-6.9871477	-2.0827236	-2.2822032
H	-5.3882435	-1.3424082	-2.2967854
H	-7.2876274	-1.4689789	0.1244136
H	-6.9992179	-0.0273381	-0.8789188
H	-5.7053045	-0.7005013	0.1364999
