40
-0.0021254 (energy)
C	1.7472350	2.2295121	-2.8078671
H	0.2087021	2.2779923	-1.3981239
C	1.0616789	1.7181512	-1.7763167
H	2.5832842	1.7135304	-3.2680568
H	1.4624376	3.1866673	-3.2339175
C	1.3118490	0.4403918	-1.1312694
C	2.5325763	-0.1158039	-1.0163756
H	3.3981600	0.4230949	-1.3899113
O	0.1601496	-0.1834240	-0.6863998
C	-0.1499719	0.1786648	0.6594163
H	-1.0337534	-0.3895874	0.9641035
H	-0.3896835	1.2444430	0.7343501
H	0.6674369	-0.0711163	1.3436489
S	2.8185862	-1.6731430	-0.3010458
C	4.5482151	-1.8504040	-0.6929806
C	5.5215502	-1.5024758	0.2487419
C	6.8769047	-1.6431876	-0.0567529
H	5.2318133	-1.1214482	1.2249277
C	7.2639844	-2.1364436	-1.3022035
H	7.6298563	-1.3712946	0.6785337
C	4.9421720	-2.3521187	-1.9377518
C	6.2976446	-2.4923390	-2.2421819
H	8.3192111	-2.2483649	-1.5385492
H	6.5983243	-2.8828547	-3.2109917
H	4.1967949	-2.6380768	-2.6762318
C	-4.2145580	1.7322491	1.1916215
C	-4.9063008	1.0492909	2.1124568
H	-4.7005869	2.4767935	0.5703988
H	-3.1516834	1.5636172	1.0382442
H	-5.9652617	1.2166198	2.2657687
C	-4.2441632	0.0341402	2.9593150
O	-3.0637726	-0.2665479	2.9047624
O	-5.1813702	-0.4900896	3.7875928
C	-4.7099670	-1.4982132	4.6932051
C	-4.7567411	-2.8618104	4.0296103
H	-5.3790315	-1.4877512	5.5599110
H	-3.7038267	-1.2655542	5.0608204
H	-5.7675824	-3.0797079	3.6695467
H	-4.4552850	-3.6449422	4.7309466
H	-4.0939320	-2.8981523	3.1592709
