40
-0.00210411 (energy)
C	0.2519431	-3.9412087	0.5577369
H	0.4449073	-2.4788721	-0.9191335
C	0.3088503	-2.6680431	0.1437514
H	0.0774396	-4.2123863	1.5935947
H	0.3597166	-4.7538007	-0.1541997
C	0.1505778	-1.4886826	0.9776572
C	0.5275459	-1.4265734	2.2686905
H	1.0125180	-2.2862022	2.7214777
O	-0.4773991	-0.4400819	0.3299318
C	0.4619374	0.4201365	-0.3151852
H	-0.0941488	1.2524535	-0.7565820
H	0.9850810	-0.1038260	-1.1218723
H	1.1855254	0.8332963	0.3950551
S	0.2781859	-0.0356472	3.2796045
C	0.7843094	-0.7279259	4.8420513
C	2.0894101	-0.5362466	5.3059992
C	2.4860878	-1.0764226	6.5311398
H	2.8042637	0.0346956	4.7185661
C	1.5787974	-1.8056629	7.2988064
H	3.5017177	-0.9248259	6.8875419
C	-0.1238003	-1.4535446	5.6199902
C	0.2739163	-1.9932730	6.8448005
H	1.8873124	-2.2236754	8.2537792
H	-0.4358543	-2.5562477	7.4454571
H	-1.1455912	-1.6011536	5.2781324
C	5.2092862	-0.1218453	-2.6062029
C	5.5863223	1.0743776	-2.1374043
H	5.8149434	-0.6492659	-3.3352400
H	4.2909669	-0.5991284	-2.2737061
H	6.5010034	1.5505993	-2.4682717
C	4.7608778	1.7937277	-1.1437731
O	3.7089166	1.3898403	-0.6779795
O	5.3820630	2.9651080	-0.8587906
C	4.7172676	3.7983468	0.1016405
C	3.6988513	4.6851358	-0.5900072
H	5.4861192	4.4194604	0.5728315
H	4.2549307	3.2010699	0.8960551
H	4.1760807	5.2756794	-1.3789531
H	3.2283262	5.3659059	0.1249767
H	2.9174381	4.0865413	-1.0687613
