40
-0.00209643 (energy)
C	-0.6804448	2.1974177	-1.3986648
H	-1.7169567	0.5302563	-2.1079078
C	-0.9481240	0.8846865	-1.4243167
H	0.0988709	2.6235739	-0.7757297
H	-1.2356109	2.8819224	-2.0327141
C	-0.2663568	-0.1433107	-0.6563613
C	0.2547726	0.0570490	0.5687956
H	0.1379308	1.0271031	1.0426300
O	-0.1555742	-1.3467919	-1.3292853
C	-1.2661118	-2.2039853	-1.0638983
H	-1.0876557	-3.1526390	-1.5787033
H	-2.1951659	-1.7758175	-1.4543989
H	-1.3694105	-2.4119218	0.0060613
S	1.1247891	-1.1570899	1.4563436
C	1.6944331	-0.1576386	2.8176862
C	0.9780488	-0.1311878	4.0182571
C	1.4249347	0.6498825	5.0861217
H	0.0697812	-0.7181527	4.1304640
C	2.5914735	1.4031721	4.9595457
H	0.8645945	0.6672844	6.0173704
C	2.8681755	0.5937884	2.6991068
C	3.3140595	1.3744702	3.7674555
H	2.9404344	2.0089481	5.7921024
H	4.2269285	1.9564308	3.6700121
H	3.4425668	0.5743515	1.7758470
C	3.0047756	-8.8491353	-1.7828949
C	3.1554453	-7.8214675	-0.9378652
H	3.4789203	-9.8046465	-1.5862399
H	2.4069672	-8.7594000	-2.6863529
H	3.7509757	-7.9100354	-0.0376424
C	2.5094452	-6.5187507	-1.2057064
O	1.8124744	-6.2645030	-2.1733329
O	2.8366285	-5.6777668	-0.1933255
C	2.2864738	-4.3559422	-0.2870129
C	3.1968988	-3.4669214	-1.1132766
H	2.2178165	-3.9649773	0.7334617
H	1.2685158	-4.3751750	-0.6931917
H	4.2084499	-3.4572044	-0.6942359
H	2.8165838	-2.4419319	-1.1415777
H	3.2810677	-3.8368563	-2.1400147
