40
-0.0020833 (energy)
C	-0.2035311	0.5840946	-0.0745332
H	-0.2599578	-1.3798854	0.6300292
C	0.2976608	-0.6530852	0.0427947
H	0.2705273	1.3528491	-0.6755950
H	-1.1313561	0.8484952	0.4234706
C	1.5070341	-1.1505739	-0.5906574
C	2.5852501	-0.3878323	-0.8522008
H	2.5840659	0.6544259	-0.5474513
O	1.4279795	-2.4837368	-0.9510649
C	1.8928116	-3.3408337	0.0919215
H	1.8557676	-4.3696009	-0.2783222
H	1.2461043	-3.2740590	0.9729837
H	2.9280576	-3.1160254	0.3684152
S	4.0041486	-0.9719625	-1.6672606
C	4.8713009	0.5724274	-1.8661509
C	5.8485270	0.9539476	-0.9416251
C	6.5299837	2.1627811	-1.0979934
H	6.0862186	0.3134498	-0.0958513
C	6.2406811	2.9919284	-2.1810900
H	7.2887372	2.4551046	-0.3766417
C	4.5908509	1.4043630	-2.9550062
C	5.2727831	2.6128675	-3.1103475
H	6.7733949	3.9316245	-2.3038754
H	5.0510263	3.2555944	-3.9584214
H	3.8418617	1.1158591	-3.6888267
C	1.7178305	5.4940060	-0.9428051
C	1.2277247	5.5355339	-2.1881763
H	1.8187950	6.3997534	-0.3546591
H	2.0279699	4.5582343	-0.4847564
H	0.9186554	6.4674382	-2.6452675
C	1.0901446	4.3011058	-2.9902890
O	1.3947619	3.1812202	-2.6164230
O	0.5753066	4.6457560	-4.1966787
C	0.3675234	3.5603170	-5.1117285
C	1.6343289	3.2918119	-5.9023308
H	-0.4336135	3.8651970	-5.7930241
H	0.0215380	2.6599381	-4.5909583
H	1.9658353	4.1994889	-6.4172592
H	1.4691380	2.5053813	-6.6441412
H	2.4514162	2.9836043	-5.2424037
