40
-0.00203863 (energy)
C	1.4955737	-1.9579391	-1.0851943
H	2.3740303	-1.2577895	0.6740425
C	1.5673180	-1.1189123	-0.0428603
H	0.7467757	-1.8606008	-1.8641788
H	2.2163938	-2.7629608	-1.1907071
C	0.6926421	0.0144349	0.2057490
C	-0.6043951	0.0540863	-0.1532101
H	-1.0507417	-0.8158705	-0.6255719
O	1.3361058	1.0815938	0.8062427
C	1.2675935	1.0056250	2.2303352
H	1.7435890	1.9027645	2.6370089
H	1.8134900	0.1331048	2.6040535
H	0.2318266	0.9800957	2.5842519
S	-1.6295359	1.4358434	0.0889408
C	-3.0691143	0.8788652	-0.8021483
C	-4.1270471	0.2711093	-0.1190028
C	-5.2562895	-0.1635304	-0.8161489
H	-4.0798303	0.1332726	0.9584199
C	-5.3342038	0.0119895	-2.1972361
H	-6.0760884	-0.6355136	-0.2807335
C	-3.1561547	1.0594793	-2.1864088
C	-4.2856998	0.6244490	-2.8824850
H	-6.2147086	-0.3240909	-2.7391312
H	-4.3482549	0.7673841	-3.9581986
H	-2.3466634	1.5410244	-2.7300537
C	0.6313459	4.3068521	7.0852453
C	1.2582105	3.9114646	5.9700829
H	0.1442825	3.5869996	7.7341441
H	0.5907344	5.3541145	7.3737863
H	1.2989901	2.8683117	5.6818631
C	1.9220800	4.8924592	5.0851802
O	1.9612679	6.0965136	5.2734044
O	2.4638274	4.2120995	4.0445849
C	3.1594727	5.0133069	3.0787630
C	2.1902705	5.5329898	2.0335261
H	3.9026102	4.3658932	2.6017536
H	3.7074413	5.8319144	3.5595974
H	1.6524274	4.7039659	1.5619654
H	2.7196297	6.0960539	1.2597165
H	1.4366104	6.1850381	2.4862477
