40
-0.00194393 (energy)
C	-0.8710567	2.1974179	1.2886145
H	-0.9670234	0.5302568	2.5408819
C	-0.7594324	0.8846868	1.5332577
H	-0.7212369	2.6235740	0.3022397
H	-1.1425764	2.8819228	2.0864269
C	-0.4352472	-0.1433106	0.5588524
C	0.3652052	0.0570489	-0.5050374
H	0.8339788	1.0271029	-0.6407667
O	-1.0734079	-1.3467917	0.7993740
C	-0.2883073	-2.2039850	1.6284345
H	-0.8233697	-3.1526386	1.7312896
H	-0.1619636	-1.7758171	2.6282692
H	0.6899543	-2.4119217	1.1829140
S	0.6988360	-1.1570902	-1.7022675
C	1.5929713	-0.1576392	-2.8762651
C	2.9908884	-0.1311886	-2.8561435
C	3.6922435	0.6498815	-3.7770905
H	3.5421962	-0.7181533	-2.1256641
C	2.9993561	1.4031710	-4.7240549
H	4.7788986	0.6672833	-3.7574459
C	0.9034075	0.5937877	-3.8334663
C	1.6056827	1.3744693	-4.7537876
H	3.5458910	2.0089469	-5.4425423
H	1.0648598	1.9564299	-5.4956338
H	-0.1833546	0.5743509	-3.8692739
C	-7.6166083	-0.5734335	4.5807841
C	-6.4200925	-0.5404014	3.9806703
H	-7.7438026	-1.0624101	5.5405818
H	-8.4923048	-0.1147440	4.1286520
H	-5.5472171	-0.9972681	4.4304070
C	-6.2463640	0.1258668	2.6722243
O	-7.1303355	0.6814782	2.0424612
O	-4.9448617	-0.0000000	2.3124089
C	-4.5909267	0.5989173	1.0575401
C	-4.8384403	-0.3773190	-0.0772034
H	-3.5243176	0.8412115	1.1082792
H	-5.1276843	1.5415542	0.8996898
H	-4.2948719	-1.3121961	0.0944465
H	-4.5165483	0.0480879	-1.0319067
H	-5.8998650	-0.6347569	-0.1495271
