40
-0.00172996 (energy)
C	0.0380581	0.3115668	0.5381676
H	-0.6655988	-0.0952369	-1.3843795
C	0.0095437	-0.4094107	-0.5909700
H	0.7123078	0.0880835	1.3581875
H	-0.6134951	1.1721634	0.6549005
C	0.8433778	-1.5603782	-0.8931866
C	1.2881780	-2.4289067	0.0344666
H	0.9878526	-2.2988872	1.0698774
O	1.1845821	-1.6535753	-2.2304825
C	0.2381584	-2.4315856	-2.9636173
H	0.5963446	-2.5109867	-3.9942543
H	-0.7418182	-1.9434541	-2.9818832
H	0.1456338	-3.4438608	-2.5568495
S	2.3372443	-3.7670699	-0.3227204
C	2.6836925	-4.3058815	1.3405012
C	1.9429059	-5.3454936	1.9112187
C	2.2152323	-5.7697496	3.2135082
H	1.1512560	-5.8318751	1.3466023
C	3.2316373	-5.1599701	3.9479258
H	1.6365958	-6.5782208	3.6528965
C	3.7073060	-3.7032188	2.0790050
C	3.9787037	-4.1281686	3.3810828
H	3.4450622	-5.4924465	4.9607429
H	4.7753857	-3.6564610	3.9505501
H	4.2999175	-2.9014219	1.6446721
C	4.2176485	3.1824660	-8.0843248
C	4.0424061	2.7970816	-6.8140308
H	3.7581876	4.0911862	-8.4579706
H	4.8214325	2.6012811	-8.7766633
H	3.4409071	3.3754800	-6.1237005
C	4.6683846	1.5583136	-6.3043931
O	5.3690550	0.8037036	-6.9573372
O	4.3184265	1.4227392	-5.0011790
C	4.8467849	0.2655207	-4.3375900
C	3.9283600	-0.9237480	-4.5475401
H	4.9001834	0.5051959	-3.2705191
H	5.8683080	0.0467015	-4.6695516
H	2.9132962	-0.6899402	-4.2100424
H	4.2914082	-1.7960728	-3.9968231
H	3.8591476	-1.1842499	-5.6084246
