40
-0.00301807 (energy)
C	1.2592577	1.7526386	-1.6094846
H	1.7777375	-0.2052256	-2.1142184
C	1.2380380	0.4273905	-1.4124046
H	0.7811131	2.4525836	-0.9323990
H	1.7872706	2.1712124	-2.4608205
C	0.6001374	-0.2633655	-0.3045782
C	-0.5159135	0.1732035	0.3090726
H	-1.0028388	1.0735425	-0.0535144
O	1.2820754	-1.3969193	0.0997517
C	0.8278775	-2.5607118	-0.5914759
H	1.3658501	-3.4226212	-0.1858747
H	1.0511168	-2.4944859	-1.6614003
H	-0.2437647	-2.7273557	-0.4413600
S	-1.2389008	-0.6219588	1.6742868
C	-2.4806439	0.5899397	2.0817507
C	-3.7873743	0.4448030	1.6056544
C	-4.7614148	1.3927126	1.9263180
H	-4.0555955	-0.4060259	0.9841919
C	-4.4341945	2.4859742	2.7275579
H	-5.7758178	1.2756368	1.5537755
C	-2.1600478	1.6843523	2.8915987
C	-3.1347390	2.6315882	3.2115470
H	-5.1935064	3.2222024	2.9791577
H	-2.8802580	3.4801413	3.8413884
H	-1.1510725	1.8047231	3.2791440
C	4.5082783	-0.0919534	1.7663659
C	4.7558212	-0.5585815	2.9967554
H	3.5556551	-0.2783635	1.2823739
H	5.2485832	0.4842769	1.2172110
H	4.0188463	-1.1328595	3.5444547
C	6.0543447	-0.3048609	3.6567468
O	6.9806576	0.3212387	3.1702751
O	6.0202646	-0.8924401	4.8785518
C	7.2081285	-0.7416702	5.6690677
C	8.2001076	-1.8412166	5.3390401
H	6.9062038	-0.8214739	6.7185479
H	7.6521370	0.2517875	5.5368255
H	7.7423532	-2.8262326	5.4773503
H	9.0847145	-1.7700812	5.9781443
H	8.5187319	-1.7820898	4.2935211
