40
-0.00168303 (energy)
C	5.5334665	-2.7810524	-0.6070535
H	6.9878315	-1.5534960	0.2501148
C	5.9679805	-1.6086096	-0.1252354
H	4.5451509	-2.9070315	-1.0364154
H	6.1834469	-3.6506778	-0.5998705
C	5.2202570	-0.3629541	-0.1008982
C	3.8826121	-0.2933695	0.0354600
H	3.3151442	-1.2090511	0.1721470
O	6.0131661	0.7555515	-0.2844926
C	6.4849432	1.2776818	0.9578080
H	7.0545721	2.1869625	0.7443926
H	7.1540377	0.5670356	1.4540483
H	5.6581329	1.5430514	1.6246554
S	2.9864099	1.1947056	0.0000002
C	1.3332408	0.5286105	-0.0002700
C	0.6246364	0.4060729	1.1989551
C	-0.6715205	-0.1136287	1.1993050
H	1.0755098	0.7148217	2.1388783
C	-1.2655565	-0.5080304	0.0010363
H	-1.2183329	-0.2070471	2.1340656
C	0.7294226	0.1387788	-1.2001907
C	-0.5666039	-0.3807965	-1.1986763
H	-2.2756515	-0.9100218	0.0015031
H	-1.0311892	-0.6821155	-2.1340215
H	1.2633457	0.2388994	-2.1423233
C	6.7613693	0.2657914	-3.7498319
C	7.9725912	-0.2577373	-3.9772892
H	6.1369024	-0.1068540	-2.9450559
H	6.3680066	1.0749514	-4.3599053
H	8.3651346	-1.0639871	-3.3700225
C	8.8240309	0.2498269	-5.0743558
O	8.5222740	1.1483106	-5.8414157
O	9.9781096	-0.4623993	-5.0669891
C	10.9348092	-0.0974619	-6.0720832
C	10.6577053	-0.8532725	-7.3581263
H	11.9226092	-0.3735225	-5.6887066
H	10.9455973	0.9859968	-6.2381872
H	10.6516859	-1.9329404	-7.1759002
H	11.4166073	-0.6267132	-8.1123029
H	9.6744607	-0.5931042	-7.7626875
