40
-0.00161729 (energy)
C	-0.0372179	0.5840946	-0.2135297
H	-0.6756002	-1.3798854	0.0898846
C	0.1117691	-0.6530852	0.2791792
H	0.7203461	1.3528491	-0.1035141
H	-0.9324144	0.8484952	-0.7680478
C	1.2650414	-1.1505739	1.0098011
C	2.0306526	-0.3878323	1.8127919
H	1.7661397	0.6544259	1.9641411
O	1.5376361	-2.4837368	0.7611340
C	0.8667995	-3.3408337	1.6851836
H	1.1689179	-4.3696009	1.4679807
H	-0.2195765	-3.2740590	1.5656499
H	1.1449720	-3.1160254	2.7199798
S	3.4459644	-0.9719625	2.6340641
C	4.0517846	0.5724274	3.2855948
C	3.7397348	0.9539476	4.5941603
C	4.2158821	2.1627811	5.1061350
H	3.1261190	0.3134498	5.2228942
C	5.0092199	2.9919284	4.3140433
H	3.9705500	2.4551046	6.1239107
C	4.8545360	1.4043630	2.4982903
C	5.3300316	2.6128675	3.0111902
H	5.3819122	3.9316245	4.7139942
H	5.9536067	3.2555944	2.3951063
H	5.1155485	1.1158591	1.4827364
C	3.9428777	0.9170495	-1.2779783
C	5.2416461	0.7924424	-1.5788958
H	3.4620429	0.2263384	-0.5937239
H	3.3333174	1.7084715	-1.7066405
H	5.8495702	0.0041575	-1.1523549
C	5.8973922	1.7336622	-2.5117560
O	5.3481311	2.6675349	-3.0711352
O	7.1974522	1.3651406	-2.6268821
C	7.9948329	2.1796937	-3.4982919
C	7.8873703	1.6795938	-4.9266809
H	9.0313881	2.0948038	-3.1558257
H	7.7164376	3.2371556	-3.4217423
H	8.1698510	0.6233990	-4.9865351
H	8.5376601	2.2571272	-5.5897209
H	6.8587440	1.7554007	-5.2931624
