40
-0.00158495 (energy)
C	-3.2566500	-0.7140635	-3.3980888
H	-2.2550185	-2.5437452	-3.4743051
C	-2.2807926	-1.5531035	-3.0248765
H	-3.3271677	0.3031520	-3.0275621
H	-4.0073082	-1.0316985	-4.1153020
C	-1.1990075	-1.2520939	-2.1026648
C	-1.3139655	-0.4056859	-1.0619402
H	-2.2733730	0.0621595	-0.8623562
O	-0.0114682	-1.8831696	-2.4266410
C	0.1013856	-3.1552798	-1.7882805
H	1.0811193	-3.5712596	-2.0410594
H	-0.6650363	-3.8472085	-2.1526869
H	0.0401180	-3.0674428	-0.6986692
S	0.0000000	0.0000000	0.0000000
C	-0.7879243	1.2904293	0.9437256
C	-1.3811630	0.9980005	2.1757279
C	-1.9967404	2.0089329	2.9168034
H	-1.3670842	-0.0164396	2.5666004
C	-2.0173502	3.3160169	2.4316372
H	-2.4566407	1.7767044	3.8739187
C	-0.8046764	2.6048106	0.4657130
C	-1.4205187	3.6148348	1.2074912
H	-2.4943192	4.1031862	3.0102166
H	-1.4305771	4.6346286	0.8314292
H	-0.3372898	2.8500787	-0.4851314
C	4.3445001	-2.4008778	-1.4240551
C	5.0615507	-3.5184933	-1.5962524
H	4.5900300	-1.6990214	-0.6343712
H	3.4996132	-2.1629602	-2.0653234
H	5.9033393	-3.7562995	-0.9577056
C	4.7270293	-4.4755684	-2.6724627
O	3.8115829	-4.3485708	-3.4677869
O	5.6114574	-5.5014401	-2.6046971
C	5.4379920	-6.5316368	-3.5881970
C	4.4401568	-7.5631438	-3.0959962
H	6.4151088	-7.0044003	-3.7319794
H	5.1376974	-6.1131831	-4.5558277
H	4.7547821	-7.9722182	-2.1302869
H	4.3450067	-8.3835659	-3.8128628
H	3.4531755	-7.1144440	-2.9454515
