40
-0.00153115 (energy)
C	0.1087437	0.1296706	-0.5995891
H	-0.5753164	-1.0063985	1.0123100
C	-0.0938328	-0.0791126	0.7084421
H	0.6183547	1.0087471	-0.9797352
H	-0.2205793	-0.6043336	-1.3286699
C	0.3199903	0.7988404	1.7897789
C	0.3903301	2.1391196	1.6828512
H	0.0904160	2.6134093	0.7531863
O	0.6886501	0.1190353	2.9366971
C	-0.4192082	-0.0699205	3.8172936
H	-0.0481567	-0.5602191	4.7221377
H	-1.1745856	-0.7205870	3.3645265
H	-0.8712699	0.8838322	4.1083567
S	0.9466182	3.1797602	2.9581606
C	0.9919075	4.7214319	2.0649372
C	-0.0882662	5.6066037	2.1354497
C	-0.0526072	6.8157287	1.4376976
H	-0.9624655	5.3618839	2.7337439
C	1.0642716	7.1464452	0.6712200
H	-0.8947561	7.5005278	1.4955204
C	2.1129203	5.0619587	1.3009040
C	2.1474854	6.2711702	0.6035817
H	1.0926869	8.0890930	0.1303903
H	3.0211827	6.5309407	0.0114031
H	2.9656529	4.3892721	1.2456638
C	6.6237466	-2.1408575	6.3901271
C	5.5349518	-2.1464814	5.6107864
H	6.5391026	-2.2648164	7.4643513
H	7.6199237	-2.0127760	5.9743266
H	4.5421374	-2.2738917	6.0242934
C	5.6499188	-1.9773235	4.1464456
O	6.6938182	-1.8228836	3.5355990
O	4.3990126	-2.0217621	3.6244523
C	4.3197567	-1.8779038	2.1990783
C	4.2572296	-0.4092564	1.8234345
H	3.4009512	-2.3792716	1.8775777
H	5.1539921	-2.3842486	1.6998229
H	3.4187720	0.0814374	2.3285422
H	4.1371492	-0.2901054	0.7429589
H	5.1667478	0.1147398	2.1338085
