40
-0.00151725 (energy)
C	0.2038229	-0.2281939	0.5427066
H	-0.2058358	1.2526236	-0.8701519
C	-0.2555293	0.1892342	-0.6448634
H	0.2270282	-1.2752182	0.8258880
H	0.5944673	0.4864812	1.2606279
C	-0.7747878	-0.6554848	-1.7070126
C	-1.4326323	-1.8105781	-1.4931678
H	-1.6276144	-2.1288728	-0.4734393
O	-0.4825630	-0.1839953	-2.9742019
C	-1.5090637	0.6777265	-3.4663769
H	-1.2426983	0.9671065	-4.4872212
H	-1.5799932	1.5888510	-2.8632342
H	-2.4798349	0.1724613	-3.4985056
S	-1.9956612	-2.8490939	-2.7672505
C	-2.5320941	-4.2359534	-1.7846464
C	-3.8749665	-4.3573631	-1.4142007
C	-4.2964810	-5.4448635	-0.6462287
H	-4.6007018	-3.6083319	-1.7213306
C	-3.3786613	-6.4169323	-0.2500360
H	-5.3413958	-5.5348461	-0.3606341
C	-1.6173542	-5.2181648	-1.3910899
C	-2.0398931	-6.3050840	-0.6231622
H	-3.7078187	-7.2647839	0.3455243
H	-1.3248861	-7.0656260	-0.3201042
H	-0.5719045	-5.1437994	-1.6812906
C	3.8243562	3.4971767	0.2066863
C	3.4543701	3.5869221	-1.0770324
H	4.0097187	4.3890843	0.7954388
H	3.9499293	2.5347757	0.6962570
H	3.3291875	4.5453588	-1.5655302
C	3.2018110	2.3713420	-1.8799677
O	3.3014557	1.2260962	-1.4735269
O	2.8497173	2.7652123	-3.1290130
C	2.5600758	1.7051835	-4.0515715
C	3.8350035	1.2351541	-4.7265344
H	1.8751207	2.1127749	-4.8023322
H	2.0393759	0.8769246	-3.5571542
H	4.3420406	2.0729035	-5.2164472
H	3.6174652	0.4677717	-5.4747625
H	4.5369952	0.8214730	-3.9956426
