40
-0.0014398 (energy)
C	0.1663132	0.5840946	-0.1389965
H	-0.4156424	-1.3798854	-0.5401446
C	-0.1858917	-0.6530852	0.2363845
H	0.4498189	1.3528491	0.5720810
H	0.1989417	0.8484952	-1.1915184
C	-0.2419927	-1.1505739	1.6004585
C	-0.5545974	-0.3878323	2.6649927
H	-0.8179262	0.6544259	2.5115924
O	0.1096567	-2.4837368	1.7121989
C	-1.0260121	-3.3408337	1.5932622
H	-0.6868496	-4.3696009	1.7463030
H	-1.4656808	-3.2740590	0.5926662
H	-1.7830856	-3.1160254	2.3515648
S	-0.5581841	-0.9719625	4.3013247
C	-0.8195161	0.5724274	5.1517458
C	-2.1087920	0.9539476	5.5357856
C	-2.3141015	2.1627811	6.2041286
H	-2.9600995	0.3134498	5.3187457
C	-1.2314610	2.9919284	6.4951334
H	-3.3181871	2.4551046	6.5005525
C	0.2636852	1.4043630	5.4532966
C	0.0572487	2.6128675	6.1215379
H	-1.3914825	3.9316245	7.0178698
H	0.9025806	3.2555944	6.3535277
H	1.2736869	1.1158591	5.1715631
C	7.3043561	-5.5606509	-1.2480677
C	6.4822324	-4.5079217	-1.1545186
H	7.6456264	-5.9152926	-2.2146348
H	7.6534434	-6.0896815	-0.3649323
H	6.1338950	-3.9804226	-2.0338978
C	6.0166493	-4.0243343	0.1628657
O	6.3190263	-4.5120704	1.2386876
O	5.2033583	-2.9601336	-0.0498607
C	4.6585094	-2.3541582	1.1310717
C	3.3762647	-3.0566294	1.5364430
H	4.4433303	-1.3093005	0.8842797
H	5.3879938	-2.3476856	1.9492406
H	2.6581899	-3.0533238	0.7098338
H	2.9215225	-2.5651593	2.4011456
H	3.5655372	-4.1045691	1.7896735
