40
-0.00135473 (energy)
C	0.2038229	0.1740384	0.5624176
H	-0.2058358	0.4002425	-1.4717459
C	-0.2555293	-0.2695484	-0.6156314
H	0.2270282	-0.4460032	1.4523614
H	0.5944673	1.1829822	0.6529929
C	-0.7747878	-1.5993770	-0.8863100
C	-1.4326323	-2.3467730	0.0199842
H	-1.6276144	-1.9351321	1.0057375
O	-0.4825630	-2.0527287	-2.1601010
C	-1.5090637	-1.7089755	-3.0910329
H	-1.2426983	-2.1434836	-4.0590550
H	-1.5799932	-0.6233210	-3.2146584
H	-2.4798349	-2.1166830	-2.7908668
S	-1.9956612	-3.9612869	-0.2884747
C	-2.5320941	-4.3920772	1.3556999
C	-3.8749665	-4.2469645	1.7175183
C	-4.2964810	-4.5863953	3.0048509
H	-4.6007018	-3.8705926	1.0007752
C	-3.3786613	-5.0763754	3.9331858
H	-5.3413958	-4.4717492	3.2814687
C	-1.6173542	-4.8915215	2.2885349
C	-2.0398931	-5.2305356	3.5754599
H	-3.7078187	-5.3430487	4.9344000
H	-1.3248861	-5.6183426	4.2964828
H	-0.5719045	-5.0210917	2.0184271
C	-3.2640848	3.8474162	-5.0662923
C	-1.9449207	3.8091776	-5.2926143
H	-3.9535810	4.1491661	-5.8473365
H	-3.6831421	3.5793378	-4.0997580
H	-1.5266434	4.0762400	-6.2552272
C	-1.0047093	3.3981041	-4.2281206
O	-1.3215011	3.0712034	-3.0969751
O	0.2505118	3.4568353	-4.7382075
C	1.3013468	3.0822992	-3.8359126
C	1.7434529	4.2823534	-3.0196067
H	2.1364569	2.7258075	-4.4478283
H	0.9963035	2.2495646	-3.1916368
H	2.0460322	5.1041111	-3.6769388
H	2.5841638	4.0214627	-2.3706190
H	0.9248180	4.6573086	-2.3972138
