40
-0.00123925 (energy)
C	-0.1663132	0.4124218	-0.4363426
H	0.4156424	-0.2221636	1.4650881
C	0.1858917	-0.5312575	0.4473962
H	-0.4498188	0.1809877	-1.4576422
H	-0.1989417	1.4561328	-0.1390593
C	0.2419928	-1.9613247	0.1961971
C	0.5545976	-2.5018676	-0.9966235
H	0.8179263	-1.8478900	-1.8225455
O	-0.1096566	-2.7246760	1.2948800
C	1.0260121	-3.0502222	2.0966160
H	0.6868497	-3.6971429	2.9110342
H	1.4656808	-2.1502932	2.5390854
H	1.7830857	-3.5945273	1.5227752
S	0.5581844	-4.2110378	-1.3089178
C	0.8195164	-4.1753293	-3.0716092
C	2.1087923	-4.3171573	-3.5940352
C	2.3141018	-4.2915427	-4.9750872
H	2.9600998	-4.4494441	-2.9308278
C	1.2314614	-4.1289868	-5.8386523
H	3.3181874	-4.4020917	-5.3764587
C	-0.2636849	-4.0205123	-3.9428620
C	-0.0572483	-3.9949740	-5.3235782
H	1.3914829	-4.1118418	-6.9138212
H	-0.9025802	-3.8745198	-5.9961910
H	-1.2736867	-3.9207759	-3.5521436
C	5.4892013	-1.7530290	-0.7052018
C	5.5028766	-2.5584837	-1.7747501
H	4.8050891	-0.9130929	-0.6505585
H	6.1583130	-1.9138673	0.1362756
H	4.8366712	-2.3988239	-2.6135474
C	6.4354254	-3.7034128	-1.8496903
O	7.2432314	-4.0106489	-0.9895935
O	6.2277671	-4.3304695	-3.0341295
C	7.0514625	-5.4800270	-3.2764332
C	8.3660863	-5.0591884	-3.9061969
H	6.5023806	-6.1268067	-3.9686189
H	7.2131697	-6.0559363	-2.3578643
H	8.1876739	-4.4868170	-4.8224311
H	8.9770233	-5.9331276	-4.1491576
H	8.9352399	-4.4115335	-3.2318567
