40
-0.00106108 (energy)
C	-3.2566500	-0.4912148	3.4373830
H	-2.2550185	1.2020561	4.1347911
C	-2.2807926	0.4248711	3.3736469
H	-3.3271677	-1.3203570	2.7412936
H	-4.0073082	-0.4380369	4.2199806
C	-1.1990075	0.4574295	2.4041000
C	-1.3139655	0.0180151	1.1366501
H	-2.2733730	-0.3533540	0.7890900
O	-0.0114682	0.9396403	2.9243786
C	0.1013856	2.3533650	2.7596033
H	1.0811193	2.6578027	3.1394113
H	-0.6650363	2.8789309	3.3386869
H	0.0401180	2.6434944	1.7056616
S	0.0000000	0.0000000	0.0000000
C	-0.7879243	-0.8898337	-1.3281649
C	-1.3811630	-0.1936708	-2.3858517
C	-1.9967404	-0.8901737	-3.4279942
H	-1.3670842	0.8932773	-2.4061928
C	-2.0173502	-2.2843675	-3.4191362
H	-2.4566407	-0.3445976	-4.2479615
C	-0.8046764	-2.2884380	-1.3285249
C	-1.4205187	-2.9838472	-2.3710170
H	-2.4943192	-2.8261789	-4.2320508
H	-1.4305771	-4.0707607	-2.3664244
H	-0.3372898	-2.8441226	-0.5189100
C	6.4717467	1.6777532	-1.6307960
C	5.2752309	1.1745557	-1.3021323
H	6.5989410	2.2644740	-2.5341611
H	7.3474432	1.5155401	-1.0074932
H	4.4023554	1.3356057	-1.9226588
C	5.1015024	0.3745425	-0.0709040
O	5.9854739	0.1069573	0.7251511
O	3.8000000	-0.0000002	-0.0000001
C	3.4460651	-0.7872895	1.1461121
C	3.6935785	-2.2581245	0.8680386
H	2.3794560	-0.6222009	1.3305755
H	3.9828227	-0.4526734	2.0413847
H	3.1500100	-2.5769099	-0.0274136
H	3.3716865	-2.8722181	1.7138035
H	4.7550031	-2.4494777	0.6812527
