40
-0.000911403 (energy)
C	4.6290877	-4.1177893	0.5808407
H	5.1922188	-4.2004081	2.5890407
C	4.6522381	-3.6364258	1.8311713
H	4.1479826	-3.5945272	-0.2387474
H	5.1223845	-5.0560542	0.3461243
C	4.0638050	-2.3852407	2.2779629
C	2.9514602	-1.8463965	1.7440478
H	2.4288939	-2.3806904	0.9562468
O	4.7892208	-1.7656240	3.2796183
C	4.3520877	-2.1722895	4.5765540
H	4.9256295	-1.6060105	5.3162785
H	4.5456666	-3.2374805	4.7404299
H	3.2900729	-1.9557448	4.7313278
S	2.2877226	-0.3187151	2.2384618
C	1.0214953	-0.1457909	0.9961188
C	-0.2921742	-0.5373850	1.2721678
C	-1.2853130	-0.4001310	0.3000827
H	-0.5509561	-0.9499815	2.2442090
C	-0.9701387	0.1332133	-0.9491125
H	-2.3050481	-0.7060437	0.5193219
C	1.3302378	0.3959095	-0.2559250
C	0.3364504	0.5326329	-1.2271814
H	-1.7442163	0.2423871	-1.7046083
H	0.5817858	0.9543322	-2.1985122
H	2.3448378	0.7159118	-0.4815291
C	4.3084943	2.5196628	3.6608734
C	4.2803500	2.2861242	4.9790333
H	4.0346596	1.7447412	2.9530605
H	4.6045259	3.4861135	3.2608709
H	3.9856704	1.3235046	5.3783191
C	4.6537617	3.3421415	5.9441846
O	5.0070385	4.4714735	5.6500489
O	4.5346711	2.8243683	7.1919612
C	4.8556099	3.7208930	8.2652317
C	6.3439147	3.6774881	8.5567932
H	4.2984985	3.3801075	9.1441105
H	4.5194074	4.7411706	8.0470780
H	6.6634481	2.6529517	8.7739307
H	6.5902166	4.3129305	9.4121248
H	6.9237026	4.0153871	7.6920403
