40
-0.000820093 (energy)
C	0.1610374	-1.9051151	1.8953934
H	0.8924645	-2.6210833	0.0762689
C	0.4038001	-1.7910614	0.5825220
H	-0.3582234	-1.1401496	2.4630077
H	0.4658653	-2.7977311	2.4330655
C	0.0258047	-0.6722374	-0.2640550
C	-0.0448684	0.6022800	0.1641272
H	0.2269880	0.8329711	1.1898229
O	-0.3084505	-1.0486760	-1.5524781
C	0.8258811	-1.0282884	-2.4193002
H	0.4821135	-1.2798573	-3.4269467
H	1.5653474	-1.7769425	-2.1165351
H	1.2888979	-0.0368157	-2.4556212
S	-0.5588571	1.9275070	-0.8350685
C	-0.6285407	3.2056331	0.4051688
C	0.4552598	4.0707727	0.5845749
C	0.4005557	5.0738830	1.5545697
H	1.3471292	3.9706097	-0.0291063
C	-0.7389237	5.2188586	2.3450431
H	1.2456091	5.7439180	1.6903852
C	-1.7720542	3.3607587	1.1955406
C	-1.8256513	4.3640469	2.1651723
H	-0.7820884	6.0016670	3.0981944
H	-2.7167952	4.4802912	2.7766076
H	-2.6275790	2.7032029	1.0598591
C	7.6189890	0.0604764	4.6425704
C	6.3008786	0.1029884	4.4109344
H	8.0217503	0.3287827	5.6132831
H	8.3224047	-0.2419709	3.8709514
H	5.5994564	0.4043348	5.1791135
C	5.7515018	-0.2624756	3.0877764
O	6.4107707	-0.6192624	2.1261221
O	4.4036584	-0.1240414	3.1458459
C	3.6978670	-0.4447916	1.9385160
C	3.6286475	0.7709188	1.0334192
H	2.6858398	-0.7447259	2.2296796
H	4.1520644	-1.3007734	1.4260810
H	3.1717159	1.6159319	1.5588635
H	3.0417378	0.5537402	0.1365278
H	4.6298186	1.0901534	0.7270324
