40
-0.000725193 (energy)
C	3.8486748	4.4436969	-2.0404111
H	5.5137603	4.5045260	-0.7831919
C	4.4912386	4.1516747	-0.9013728
H	2.8155927	4.1638606	-2.2176763
H	4.3512058	5.0007390	-2.8252304
C	3.9340928	3.4436833	0.2386609
C	2.9970467	2.4819715	0.1397433
H	2.6502018	2.1786406	-0.8435496
O	4.4234842	3.8898907	1.4530997
C	5.5834218	3.1606695	1.8547033
H	5.8826021	3.5243643	2.8421403
H	6.4149551	3.3332566	1.1635260
H	5.3786897	2.0881252	1.9350482
S	2.2877228	1.6830053	1.5098950
C	1.0211482	0.7523826	0.6694305
C	1.2491727	-0.5796046	0.3101373
C	0.2564838	-1.3101195	-0.3463910
H	2.1987327	-1.0568896	0.5394908
C	-0.9688064	-0.7136886	-0.6417101
H	0.4384537	-2.3452314	-0.6237687
C	-0.2126976	1.3430737	0.3777398
C	-1.2045381	0.6117409	-0.2788045
H	-1.7422840	-1.2836483	-1.1504021
H	-2.1616593	1.0756021	-0.5029806
H	-0.4092799	2.3744241	0.6612597
C	5.2894464	-4.6218761	-4.3286912
C	4.9567827	-3.7046470	-3.4116834
H	4.9879150	-5.6574446	-4.2139536
H	5.8680905	-4.3600299	-5.2108881
H	4.3804362	-3.9647549	-2.5324392
C	5.3678145	-2.2929610	-3.5676367
O	6.0177689	-1.8478678	-4.4983151
O	4.8973238	-1.6036155	-2.4986842
C	5.2013311	-0.2014408	-2.4863036
C	6.5566797	0.0351287	-1.8467661
H	4.4234982	0.2892708	-1.8920698
H	5.1536195	0.2262179	-3.4944808
H	6.5877034	-0.3962083	-0.8408281
H	6.7719852	1.1052129	-1.7788894
H	7.3528014	-0.4455404	-2.4240656
