40
-0.000724533 (energy)
C	3.7935740	-1.5131413	2.4457846
H	2.4700685	-3.0792901	2.8360675
C	2.5943255	-2.1056531	2.3663735
H	3.9863911	-0.5257724	2.0396881
H	4.6170429	-2.0091891	2.9503738
C	1.4023340	-1.5469318	1.7512905
C	1.4237663	-0.7159826	0.6921430
H	2.3758770	-0.4647902	0.2343619
O	0.2325551	-1.9108271	2.3936799
C	-0.3204137	-3.1074725	1.8452551
H	-1.2662851	-3.3052027	2.3581339
H	0.3431448	-3.9614763	2.0165080
H	-0.5290115	-3.0029371	0.7755443
S	0.0000000	0.0000000	0.0000000
C	0.7768441	1.1130771	-1.1550858
C	0.9472288	0.7340984	-2.4902340
C	1.5537684	1.6065150	-3.3963861
H	0.6085686	-0.2403620	-2.8334604
C	1.9876078	2.8620914	-2.9726045
H	1.6841119	1.3073877	-4.4332282
C	1.2067884	2.3768295	-0.7374106
C	1.8131932	3.2483231	-1.6442830
H	2.4572789	3.5419677	-3.6790507
H	2.1453721	4.2293275	-1.3144486
H	1.0706338	2.6905035	0.2949568
C	4.6647431	0.7132503	-3.2189533
C	4.9497331	-0.5679689	-3.4837847
H	4.7249407	1.4681120	-3.9955151
H	4.3662117	1.0355176	-2.2246261
H	5.2473578	-0.8897993	-4.4741112
C	4.8679926	-1.5972035	-2.4254272
O	4.5503596	-1.3912047	-1.2663823
O	5.2103897	-2.7876829	-2.9774607
C	5.1809128	-3.9121111	-2.0866970
C	6.5078904	-4.0417934	-1.3626415
H	5.0083621	-4.8021537	-2.7006891
H	4.3447168	-3.8408425	-1.3815114
H	7.3319642	-4.1133237	-2.0800752
H	6.5166068	-4.9303788	-0.7251591
H	6.7031881	-3.1630627	-0.7398907
