40
-0.000722343 (energy)
C	1.5587075	4.4410853	-4.0705294
H	0.9671094	3.8283330	-5.9761411
C	1.1596619	3.5143200	-4.9522560
H	1.8099272	4.2010782	-3.0427769
H	1.6645016	5.4776216	-4.3757748
C	1.0058536	2.0933809	-4.6903107
C	0.6392873	1.5855403	-3.4984816
H	0.4061371	2.2629807	-2.6824600
O	1.3243460	1.2984963	-5.7766751
C	0.1828420	1.0405419	-6.5945581
H	0.4919302	0.3652872	-7.3978702
H	-0.1896723	1.9631703	-7.0516684
H	-0.6174487	0.5522913	-6.0289893
S	0.5185845	-0.1167614	-3.1722866
C	0.2317808	-0.0476799	-1.4145545
C	-1.0722733	-0.0999838	-0.9125746
C	-1.2976932	-0.0481801	0.4646018
H	-1.9196236	-0.1824246	-1.5887914
C	-0.2207822	0.0511841	1.3447545
H	-2.3132056	-0.0890585	0.8500516
C	1.3086200	0.0439969	-0.5266426
C	1.0820759	0.0957951	0.8501799
H	-0.3966430	0.0887359	2.4169261
H	1.9225368	0.1669076	1.5357978
H	2.3291542	0.0737981	-0.9012538
C	2.8832050	4.7262690	4.7006011
C	2.9237821	3.8269756	3.7093883
H	2.1231827	4.6690395	5.4723387
H	3.6052146	5.5364890	4.7631245
H	2.2047388	3.0195713	3.6463260
C	3.9595244	3.9047863	2.6571007
O	4.8333309	4.7526049	2.5909415
O	3.7537356	2.8774726	1.7959994
C	4.6794206	2.7937073	0.7029494
C	4.2044887	3.6541935	-0.4528822
H	4.7122450	1.7445593	0.3912653
H	5.6933262	3.0678527	1.0166839
H	3.1919331	3.3672884	-0.7551103
H	4.8721703	3.5512603	-1.3129112
H	4.1641865	4.7098019	-0.1661872
