40
-0.000178163 (energy)
C	4.9921331	-1.7709386	-3.2656395
H	6.6519580	-0.7227731	-2.5563157
C	5.5652342	-0.7732276	-2.5788344
H	3.9165699	-1.8669369	-3.3702244
H	5.6053716	-2.5143945	-3.7656259
C	4.8709278	0.3020168	-1.8909912
C	3.6605900	0.1671055	-1.3168738
H	3.1740943	-0.8036652	-1.3269770
O	5.5532256	1.5048271	-1.9253938
C	6.4214429	1.6513889	-0.8014619
H	6.8837266	2.6410575	-0.8619953
H	7.2199102	0.9023804	-0.8213688
H	5.8725706	1.5897156	0.1438727
S	2.8063074	1.4719995	-0.5512001
C	1.2527442	0.6527777	-0.2479384
C	0.9970330	0.0693156	0.9968348
C	-0.2208364	-0.5707782	1.2359722
H	1.7421880	0.1101012	1.7874983
C	-1.1888797	-0.6257675	0.2339005
H	-0.4149651	-1.0229540	2.2051777
C	0.2749436	0.6014695	-1.2467618
C	-0.9424050	-0.0388646	-1.0065949
H	-2.1378988	-1.1218245	0.4214617
H	-1.6988792	-0.0757438	-1.7862678
H	0.4544389	1.0608047	-2.2160421
C	8.5076595	10.5034620	1.7608026
C	7.4188647	9.7369378	1.9016720
H	8.4230155	11.5828916	1.6963414
H	9.5038365	10.0717374	1.7068700
H	6.4260502	10.1662872	1.9553419
C	7.5338317	8.2654696	1.9893640
O	8.5777311	7.6370850	1.9433428
O	6.2829255	7.7591232	2.1237705
C	6.2036697	6.3304231	2.2296112
C	6.1411427	5.7054584	0.8485056
H	5.2848641	6.1008683	2.7791900
H	7.0379050	5.9266783	2.8149582
H	5.3026851	6.1176844	0.2775556
H	6.0210623	4.6207073	0.9187873
H	7.0506609	5.9201262	0.2785743
