40
-6.3073e-05 (energy)
C	-0.2285164	-3.8978143	2.7235063
H	0.2386344	-4.7731193	0.8870910
C	-0.0017822	-3.8461973	1.4038470
H	-0.5136986	-3.0259322	3.3027149
H	-0.1521785	-4.8410598	3.2557047
C	-0.0984299	-2.6643340	0.5640859
C	0.1783102	-1.4171829	0.9892429
H	0.5299852	-1.2693088	2.0059207
O	-0.5558287	-2.9356252	-0.7128847
C	0.5193876	-3.2088773	-1.6116324
H	0.0933872	-3.3581965	-2.6081474
H	1.0460225	-4.1257609	-1.3271326
H	1.2239885	-2.3725604	-1.6648612
S	0.0000000	0.0000000	0.0000000
C	0.3016992	1.2473422	1.2368369
C	1.5784326	1.7988182	1.3821041
C	1.8151051	2.7777848	2.3494320
H	2.3954122	1.4715584	0.7437362
C	0.7759291	3.2122923	3.1713785
H	2.8092936	3.2034245	2.4586478
C	-0.7387220	1.6927012	2.0587578
C	-0.5009453	2.6715519	3.0256906
H	0.9600574	3.9763976	3.9224636
H	-1.3130899	3.0141539	3.6617317
H	-1.7397523	1.2818413	1.9499257
C	8.0342175	-3.1268335	-0.9205156
C	7.5428980	-4.0555625	-1.7505428
H	9.0526137	-3.1925600	-0.5530413
H	7.4326770	-2.2835753	-0.5907761
H	8.1415181	-4.8960446	-2.0793979
C	6.1546560	-3.9664197	-2.2515055
O	5.3607416	-3.0842970	-1.9717364
O	5.9366813	-5.0325221	-3.0609070
C	4.6286404	-5.1057717	-3.6459976
C	3.6740240	-5.8194207	-2.7071921
H	4.7255260	-5.6762049	-4.5755970
H	4.2561158	-4.1109585	-3.9164824
H	4.0592332	-6.8110471	-2.4479311
H	2.6888924	-5.9328144	-3.1683878
H	3.5592028	-5.2671306	-1.7691520
