40
-0.00290002 (energy)
C	-1.4955737	-2.1974178	-0.4272316
H	-2.3740304	-0.5302566	-1.3248378
C	-1.5673181	-0.8846867	-0.6863898
H	-0.7467756	-2.6235739	0.2320730
H	-2.2163939	-2.8819226	-0.8638619
C	-0.6926421	0.1433106	-0.1483343
C	0.6043951	-0.0570490	0.1521317
H	1.0507417	-1.0271030	-0.0452155
O	-1.3361058	1.3467918	0.0776173
C	-1.2675935	2.2039851	-1.0621328
H	-1.7435890	3.1526388	-0.7969929
H	-1.8134901	1.7758173	-1.9092628
H	-0.2318267	2.4119218	-1.3496587
S	1.6295360	1.1570901	0.8548095
C	3.0691144	0.1576390	1.1794047
C	4.1270471	0.1311883	0.2654270
C	5.2562895	-0.6498819	0.5200909
H	4.0798303	0.7181531	-0.6485266
C	5.3342039	-1.4031714	1.6908870
H	6.0760884	-0.6672837	-0.1934462
C	3.1561549	-0.5937880	2.3559064
C	4.2857000	-1.3744697	2.6094996
H	6.2147087	-2.0089474	1.8899745
H	4.3482550	-1.9564303	3.5254210
H	2.3466635	-0.5743512	3.0818939
C	3.0282813	-4.6423487	0.2831954
C	2.6498649	-5.1299513	-0.9050480
H	3.4658890	-5.2893748	1.0357543
H	2.9098765	-3.5903096	0.5298888
H	2.7673701	-6.1779702	-1.1515246
C	2.0531092	-4.2483102	-1.9310683
O	1.8558663	-3.0519434	-1.8025663
O	1.7695045	-5.0090935	-3.0173442
C	1.1831328	-4.3096658	-4.1244290
C	-0.3245587	-4.2484104	-3.9661343
H	1.4354747	-4.8732166	-5.0286801
H	1.6152908	-3.3087269	-4.2382294
H	-0.7407197	-5.2550995	-3.8551733
H	-0.7864358	-3.7690779	-4.8338633
H	-0.6028728	-3.6879828	-3.0680310
