40
-0.00268406 (energy)
C	4.6290877	0.1430300	-4.1560927
H	5.1922188	-1.8203143	-4.5861766
C	4.6522381	-1.1718931	-3.8991598
H	4.1479826	0.8593033	-3.4984603
H	5.1223845	0.5371086	-5.0393452
C	4.0638050	-1.8291629	-2.7445676
C	2.9514602	-1.3969284	-2.1211963
H	2.4288939	-0.5283168	-2.5105729
O	4.7892208	-2.9231962	-2.3082998
C	4.3520877	-4.1298118	-2.9339977
H	4.9256295	-4.9566316	-2.5047735
H	4.5456666	-4.1062296	-4.0114628
H	3.2900729	-4.3198369	-2.7476190
S	2.2877226	-2.1491103	-0.7025778
C	1.0214953	-0.9556692	-0.3165502
C	-0.2921742	-1.1595248	-0.7501305
C	-1.2853130	-0.2260417	-0.4461609
H	-0.5509561	-2.0451519	-1.3252519
C	-0.9701387	0.9115611	0.2960011
H	-2.3050481	-0.3888291	-0.7854966
C	1.3302378	0.1832880	0.4343356
C	0.3364504	1.1160470	0.7376388
H	-1.7442163	1.6366214	0.5347068
H	0.5817858	1.9993938	1.3216013
H	2.3448378	0.3498968	0.7886521
C	3.0975129	3.2445709	-1.9914536
C	4.2734650	3.6871087	-1.5286635
H	2.6421167	3.6905245	-2.8690798
H	2.5655043	2.4303254	-1.5060313
H	4.8040384	4.4983623	-2.0116349
C	4.8944456	3.0796005	-0.3322343
O	4.4207787	2.1634859	0.3182154
O	6.0642868	3.7249300	-0.0993410
C	6.8116406	3.2581585	1.0330257
C	6.3494008	3.9651809	2.2933419
H	7.8632755	3.4961723	0.8423704
H	6.7419362	2.1690462	1.1358131
H	6.4264418	5.0510251	2.1753058
H	6.9527709	3.6597575	3.1528213
H	5.2992827	3.7417304	2.5065298
