40
-0.00262134 (energy)
C	1.4202951	-1.8480368	-1.3473805
H	2.6702021	-0.3234673	-0.6616472
C	1.6418382	-0.6666004	-0.7551813
H	0.4228898	-2.2403736	-1.5154413
H	2.2531360	-2.4471896	-1.7025800
C	0.6259421	0.2480788	-0.2625786
C	-0.5607819	-0.1466236	0.2360451
H	-0.7758508	-1.2080093	0.3159303
O	0.9736249	1.5796442	-0.4022811
C	1.6537587	2.0714629	0.7527240
H	1.8479637	3.1370189	0.5988105
H	2.6164644	1.5671798	0.8863515
H	1.0451334	1.9638174	1.6564439
S	-1.7977579	0.9530238	0.7646934
C	-3.1091847	-0.2175942	1.0587407
C	-3.3321146	-0.7144968	2.3466330
C	-4.3608592	-1.6299999	2.5782607
H	-2.7084664	-0.3920080	3.1767728
C	-5.1731184	-2.0482381	1.5248893
H	-4.5302087	-2.0135305	3.5811231
C	-3.9321023	-0.6345937	0.0074116
C	-4.9603906	-1.5500788	0.2401257
H	-5.9755951	-2.7588957	1.7062344
H	-5.5970535	-1.8707217	-0.5804545
H	-3.7786518	-0.2481548	-0.9974912
C	3.3499478	8.0519849	1.9307247
C	2.0383906	7.9998930	2.1952656
H	3.9466908	8.9021858	2.2430456
H	3.8548929	7.2499056	1.3984064
H	1.5345743	8.7986418	2.7254272
C	1.2245733	6.8412080	1.7694998
O	1.6456558	5.8692579	1.1655845
O	-0.0528893	7.0633122	2.1669631
C	-0.9901185	6.0276927	1.8386930
C	-1.5487314	6.2490257	0.4455288
H	-1.8001797	6.0848070	2.5731824
H	-0.5373397	5.0341479	1.9359032
H	-1.9982714	7.2442046	0.3651671
H	-2.3079570	5.4984393	0.2083785
H	-0.7569443	6.1954261	-0.3083463
