11
-0.00522444 (energy)
C	0.0752103	-0.0183130	-0.0324950
H	-0.8955162	0.2180496	0.3869127
C	0.5259075	0.4672602	-1.1896455
H	-0.0901222	1.1435075	-1.7742573
H	1.5024851	0.2129477	-1.5848719
O	0.7737788	-0.8720201	0.7708599
H	1.6347308	-1.0556590	0.3568195
C	5.1398863	-0.9931032	-1.2032662
H	5.5019585	-2.0094885	-0.9805649
H	5.6781444	-0.4623112	-2.0046985
O	4.2017590	-0.4871114	-0.6002501
