11
-0.00224114 (energy)
C	0.2088581	0.3894192	-1.3117552
H	0.2261543	-0.4346204	-2.0151325
C	0.3714627	1.6672867	-1.6560238
H	0.5332779	1.9357577	-2.6954049
H	0.3493295	2.4714463	-0.9297869
O	0.0004663	-0.0456396	-0.0352405
H	-0.0074013	0.7243338	0.5592928
C	2.5512965	-0.8333425	1.0183600
H	2.3761601	-1.9106154	0.8682217
H	2.1387839	-0.4103115	1.9482170
O	3.1636157	-0.1516218	0.2059185
