11
-0.00209285 (energy)
C	1.3308704	-0.4758583	0.0519617
H	1.6111766	-1.4473890	0.4413669
C	0.0766924	-0.0258802	0.0023250
H	-0.7390561	-0.6433860	0.3653880
H	-0.1741073	0.9515369	-0.3930711
O	2.4199089	0.2245436	-0.3788811
H	2.1221863	1.0861612	-0.7185388
C	5.6791014	1.8563449	0.1565514
H	5.7659653	0.8985706	0.6940033
H	4.7461945	1.9989033	-0.4118831
O	6.5606520	2.7057951	0.1888269
