11
-0.001293 (energy)
C	1.2276105	-0.5111289	-0.4817436
H	1.4861681	-1.5633777	-0.4824776
C	0.0707420	-0.0277831	-0.0279389
H	-0.6817140	-0.7001452	0.3724520
H	-0.1605993	1.0309536	-0.0397889
O	2.2321527	0.2520784	-1.0019384
H	1.9575247	1.1851124	-0.9814910
C	4.8834846	2.3217103	1.2077071
H	5.1818067	1.3519173	1.6369351
H	4.1349874	2.2736729	0.4007373
O	5.3525475	3.3822788	1.6012975
