11
-0.00459323 (energy)
C	0.2088581	-0.4284708	-1.2995237
H	0.2261543	-1.5065246	-1.4071381
C	0.3714627	0.4246775	-2.3112570
H	0.5332779	0.0522490	-3.3180771
H	0.3493295	1.4994441	-2.1735266
O	0.0004663	-0.0575883	-0.0029081
H	-0.0074013	0.9139682	0.0461532
C	3.5426447	0.9594093	0.4021038
H	4.4755443	1.2877734	0.8874971
H	3.4557699	-0.1244332	0.2246383
O	2.6610927	1.7465908	0.0812450
