11
-0.00125584 (energy)
C	-0.0117817	0.0530569	-0.0639846
H	0.1402822	-0.6317399	0.7618543
C	-0.0823831	-0.3230104	-1.3412847
H	0.0141175	-1.3710839	-1.6073736
H	-0.2353606	0.3851772	-2.1472939
O	-0.1212127	1.3428094	0.3681685
H	-0.2560640	1.9198507	-0.4033427
C	2.7228415	-1.6555437	1.8299127
H	3.2611018	-0.7741263	2.2134627
H	3.0849118	-2.0513678	0.8676319
O	1.7847141	-2.1615356	2.4329285
