11
-0.00427523 (energy)
C	0.0815366	0.0079236	-0.0183545
H	-0.9708420	-0.0943449	0.2185433
C	0.5701439	0.9111697	-0.8688343
H	-0.0977028	1.6027542	-1.3730817
H	1.6288668	0.9903015	-1.0866108
O	0.8388646	-0.9011745	0.6614896
H	1.7722407	-0.7730921	0.4190133
C	4.9566569	2.1649397	-1.1677105
H	4.4357737	2.8797286	-1.8245887
H	6.0297619	2.3590495	-1.0111122
O	4.3812660	1.2178814	-0.6464193
