11
-0.00400076 (energy)
C	-1.2866017	-0.4953050	0.1236924
H	-1.3931460	-1.2479325	0.8958842
C	-2.2882747	-0.0709138	-0.6473134
H	-3.2850833	-0.4822771	-0.5219073
H	-2.1519137	0.6841687	-1.4127144
O	-0.0028792	-0.0397603	0.0416644
H	0.0456951	0.6310242	-0.6612437
C	3.0594460	0.7481280	-0.1546379
H	3.7241751	0.1474399	-0.7957620
H	2.6885348	0.2419819	0.7508989
O	2.7532859	1.9014301	-0.4301358
