11
-0.00309948 (energy)
C	-1.1448240	-0.2147710	-0.7478116
H	-1.2396275	-1.2274676	-1.1213593
C	-2.0361172	0.7505008	-0.9753049
H	-2.9230820	0.5454884	-1.5667753
H	-1.9147818	1.7555629	-0.5883802
O	-0.0025622	-0.0545216	-0.0185989
H	0.0406647	0.8652974	0.2951772
C	3.2178107	-1.1520234	0.5235273
H	2.3309979	-1.0367782	1.1669657
H	3.4149378	-2.1751184	0.1655142
O	3.9364585	-0.2060707	0.2261086
