11
-0.00238874 (energy)
C	-1.1448240	-0.7709108	0.1050968
H	-1.2396275	-1.2860872	1.0536144
C	-2.0361172	-0.8573531	-0.8828458
H	-2.9230820	-1.4721428	-0.7649432
H	-1.9147818	-0.3300355	-1.8218861
O	-0.0025622	-0.0262396	0.0512836
H	0.0406647	0.4164407	-0.8139081
C	3.3765488	-0.4897139	0.2243506
H	2.6659242	0.0174391	0.8963177
H	3.3974877	-0.1179458	-0.8125225
O	4.0951967	-1.4055327	0.6045613
