11
-0.00631763 (energy)
C	0.0429197	-0.0717791	0.0060853
H	-0.5110372	0.8546610	-0.0724565
C	0.2873649	-0.8776999	-1.0250668
H	-0.0670497	-0.6372448	-2.0207908
H	0.8490236	-1.7960885	-0.8892485
O	0.4833736	-0.3627717	1.2645661
H	0.1975643	0.3522029	1.8600932
C	2.9054860	1.9014491	2.1330060
H	2.7631653	1.4782215	1.1258543
H	3.9481468	1.9469490	2.4859141
O	1.9673594	2.2950407	2.8147266
