11
-0.00256107 (energy)
C	-0.5713935	0.6847942	-1.0581141
H	-0.6101135	0.0870260	-1.9595032
C	-1.0223542	1.9349661	-0.9791146
H	-1.4623299	2.4275430	-1.8385820
H	-0.9584220	2.4890485	-0.0483890
O	-0.0153723	0.0531732	0.0162908
H	0.2439695	-0.8438967	-0.2585465
C	3.2625382	1.0133023	-0.1568190
H	3.1691142	1.9961718	0.3320275
H	2.5099244	0.7946746	-0.9311124
O	4.1440893	0.2169672	0.1405982
