11
-0.00247608 (energy)
C	0.7048025	0.1574866	-1.2127609
H	0.8564675	-0.6398331	-1.9287268
C	0.0399540	0.0085935	-0.0689323
H	-0.3934243	-0.9457167	0.2074193
H	-0.0823010	0.8433957	0.6133460
O	1.2551883	1.3533491	-1.5725370
H	1.6902649	1.2408007	-2.4360006
C	3.6217019	0.6424156	1.3469515
H	3.9200239	-0.3763914	1.0523883
H	2.8732046	1.1243270	0.6978990
O	4.0907647	1.2018631	2.3301796
