11
-0.00516253 (energy)
C	-1.1480416	0.6282610	-0.4498084
H	-1.2258393	0.6150674	-1.5292072
C	-2.0541105	1.1855473	0.3508211
H	-2.9381074	1.6663048	-0.0520640
H	-1.9256574	1.1698546	1.4281318
O	-0.0308860	0.0199107	0.0444826
H	0.4901824	-0.3159972	-0.7059717
C	2.8531574	0.1994220	1.7430905
H	1.9284811	0.7789987	1.8940738
H	3.3276785	-0.1849150	2.6600805
O	3.3222217	-0.0040246	0.6302891
