11
-0.00228995 (energy)
C	0.3320116	-0.1811183	-1.3598904
H	0.4034557	-1.1492996	-1.8382720
C	0.0188211	-0.0106409	-0.0771646
H	-0.1853303	-0.8578382	0.5674079
H	-0.0387693	0.9845374	0.3513775
O	0.5912820	0.8768141	-2.1820877
H	0.7962336	0.5305132	-3.0684277
C	3.3494905	-1.9750350	-0.2181921
H	2.5437923	-1.3276808	0.1632712
H	4.3592919	-1.5347514	-0.2037877
O	3.1368354	-3.1083358	-0.6306798
