11
-0.00219536 (energy)
C	1.3322410	0.3203508	-0.3388904
H	1.6189252	0.7995062	-1.2660099
C	0.0755225	0.0183251	-0.0195545
H	-0.7436644	0.2445223	-0.6923566
H	-0.1555688	-0.4627167	0.9251890
O	2.3725988	0.0410284	0.4990148
H	3.1949952	0.3423055	0.0742510
C	4.1564736	-0.4287875	3.6499381
H	4.5273775	-1.2326623	4.3056415
H	3.4917387	0.3069187	4.1301668
O	4.4626328	-0.3577422	2.4663174
