11
-0.00143058 (energy)
C	-0.0778582	-0.0105558	-0.0292922
H	0.9270449	0.1256862	0.3487768
C	-0.5212945	0.5276498	-1.1634154
H	0.1216323	1.1455850	-1.7796103
H	-1.5401705	0.3579733	-1.4957500
O	-0.8768640	-0.7903101	0.7555795
H	-0.3583917	-1.0770835	1.5278978
C	3.2787356	-1.1168014	2.3311568
H	2.2829723	-1.1385668	2.8020211
H	4.0827325	-1.6133123	2.8975681
O	3.4785680	-0.5767736	1.2503350
