11
-0.00444097 (energy)
C	1.3138023	-0.1960837	-0.4772966
H	1.5965191	-0.1021276	-1.5177638
C	0.0744772	-0.0110608	-0.0274342
H	-0.7333719	0.2499612	-0.7013349
H	-0.1534158	-0.1182617	1.0279887
O	2.3397612	-0.5249419	0.3603853
H	3.1507754	-0.6116258	-0.1709055
C	7.0787410	-0.6619749	-0.4883843
H	7.6778256	-0.2636320	-1.3227415
H	7.5840752	-1.4084465	0.1449982
O	5.9279574	-0.2992398	-0.2789581
