11
-0.00321872 (energy)
C	0.5893844	-0.6555154	-1.0667541
H	0.6293259	-1.7267142	-0.9175356
C	1.0545447	-0.0416284	-2.1527123
H	1.5083728	-0.6017155	-2.9621796
H	0.9885984	1.0370218	-2.2502301
O	0.0158563	0.0377541	-0.0406483
H	-0.2516510	-0.5991854	0.6451183
C	3.7392962	-2.0969671	0.0223913
H	3.2647861	-1.1271741	-0.1968640
H	4.6639815	-2.0489297	0.6193883
O	3.2702334	-3.1575356	-0.3711991
