11
-0.00468346 (energy)
C	0.3616844	-0.0000646	-1.3360970
H	0.0478217	0.8865136	-1.8741949
C	1.0346245	-1.0092885	-1.8897443
H	1.3014986	-0.9749269	-2.9414911
H	1.3357443	-1.8846272	-1.3261029
O	-0.0178648	0.0481570	-0.0262076
H	0.2835268	-0.7642867	0.4159340
C	2.7725348	-3.7668934	1.6638121
H	3.4327769	-3.5544722	2.5197845
H	3.1233526	-4.5540423	0.9774599
O	1.7190254	-3.1680485	1.4870586
