11
-0.00445801 (energy)
C	-1.0534099	0.8868571	0.1406512
H	-0.9269447	1.5905533	0.9548369
C	-2.1167810	0.8599104	-0.6633527
H	-2.9246273	1.5714751	-0.5232320
H	-2.2161266	0.1436498	-1.4706221
O	0.0092508	0.0362188	0.0439057
H	-0.1468170	-0.5748188	-0.6968148
C	1.9795423	-2.0966833	0.8016686
H	1.6032755	-1.8038606	1.7948501
H	2.7608604	-1.4451027	0.3788914
O	1.5574985	-3.0807319	0.2073066
