11
-0.00474942 (energy)
C	1.2414380	-0.2796709	0.5445977
H	1.5957334	0.4753748	1.2363065
C	1.9216842	-1.3832156	0.2325708
H	2.8932631	-1.5696884	0.6796011
H	1.5418090	-2.1219131	-0.4635638
O	0.0164377	0.0416436	0.0363415
H	-0.2608789	-0.6609137	-0.5767651
C	1.4632770	-0.4486866	-3.7246642
H	2.3038246	-0.4456277	-4.4368451
H	1.1210069	0.5435490	-3.3898872
O	0.9440691	-1.4857557	-3.3314090
