11
-0.00116854 (energy)
C	0.2269233	0.8082531	-1.1382398
H	0.4297306	1.8717473	-1.0943142
C	0.0128022	0.0449960	-0.0660937
H	0.0354617	0.4816718	0.9275735
H	-0.1878954	-1.0174310	-0.1406066
O	0.2187285	0.3523869	-2.4244403
H	0.0336303	-0.6026276	-2.4156630
C	3.6746546	-1.0294414	-1.3342736
H	3.8402072	-1.2478415	-2.4013373
H	3.0764981	-0.1291426	-1.1211380
O	4.1254107	-1.7399583	-0.4444852
