11
-0.00283177 (energy)
C	0.8262595	-0.0315142	1.1474577
H	0.4501684	-0.0743229	2.1627423
C	0.0485870	-0.0017518	0.0647545
H	-1.0318930	-0.0201784	0.1686636
H	0.4533757	0.0410374	-0.9396846
O	2.1904421	-0.0120603	1.1188152
H	2.4823991	0.0263219	0.1916265
C	3.4026545	3.1927576	2.8183214
H	3.0701467	2.6474241	3.7159746
H	3.4315614	2.6031496	1.8881157
O	3.7190017	4.3753454	2.8522237
