11
0.00107338 (energy)
C	0.7771735	-0.8865629	0.7252435
H	0.9985555	-1.8068115	0.1977848
C	1.2034994	-0.6128643	1.9586299
H	1.8117176	-1.3326074	2.4977164
H	0.9660951	0.3171930	2.4618348
O	0.0102690	-0.0479809	-0.0302898
H	-0.1629766	0.7614914	0.4807206
C	3.6725963	0.7221796	-0.3609578
H	4.2058144	1.3278104	-1.1110386
H	3.6005907	-0.3543146	-0.5839629
O	3.1920183	1.2127951	0.6529851
