11
0.00114212 (energy)
C	0.9134771	0.4666658	0.9293834
H	1.1351627	-0.2418661	1.7186350
C	1.4584234	1.6804754	0.8421688
H	2.1718179	2.0130291	1.5898653
H	1.2174176	2.3687218	0.0404109
O	0.0099773	-0.0395407	0.0407686
H	-0.1583473	0.6275390	-0.6470268
C	2.6668622	3.5185423	-2.4678589
H	2.1674046	3.3439364	-3.4341850
H	2.3030170	4.3866474	-1.8953504
O	3.5664070	2.7959370	-2.0574936
