11
0.00100434 (energy)
C	-0.1585643	1.3653194	0.3333429
H	-0.1428594	2.1707344	-0.3913226
C	-0.0092241	0.0777614	0.0206154
H	0.1392032	-0.2187390	-1.0131306
H	-0.0293740	-0.7071529	0.7676670
O	-0.3497297	1.8348387	1.6003080
H	-0.3568327	1.0805795	2.2146642
C	0.3268893	3.3419429	-3.4522688
H	-0.5631975	2.7087944	-3.3087420
H	1.2562292	2.9650127	-2.9961910
O	0.2860050	4.3944268	-4.0770448
