11
0.00179737 (energy)
C	-0.0768612	0.0183415	-0.0283518
H	0.9151735	-0.2183888	0.3375798
C	-0.7087046	-0.6777402	-0.9739472
H	-0.2305382	-1.5404585	-1.4274313
H	-1.7019659	-0.4172111	-1.3205582
O	-0.5941099	1.1142413	0.5990638
H	-1.4814429	1.2889981	0.2406071
C	3.5460464	0.1868456	3.0565742
H	4.3422596	-0.2476416	3.6818716
H	3.3023391	-0.3743831	2.1403947
O	2.9703348	1.2243603	3.3596555
