11
0.00115259 (energy)
C	-0.2785635	-1.3731405	0.1929884
H	-0.1176685	-1.8975428	1.1274375
C	-0.0164407	-0.0787122	0.0095398
H	0.3834133	0.5175289	0.8239028
H	-0.1876570	0.4196838	-0.9374919
O	-0.7811324	-2.2025989	-0.7670201
H	-0.9091338	-1.6915730	-1.5848582
C	2.6047542	-3.1290837	0.3532498
H	2.8345952	-2.0899696	0.6381116
H	2.7887374	-3.8865917	1.1317662
O	2.1735545	-3.4225276	-0.7547648
