11
0.00159529 (energy)
C	-0.0309475	-0.0101578	-0.0773754
H	0.3684866	0.1209470	0.9212957
C	-0.9997944	-0.8727979	-0.3857487
H	-1.4388217	-1.4983521	0.3852966
H	-1.3798919	-0.9824427	-1.3947515
O	0.5811961	0.8161865	-0.9743862
H	0.1927135	0.6648638	-1.8533479
C	3.0831870	2.3398483	2.1425329
H	3.7787065	2.5479965	2.9711814
H	2.9659930	1.2771654	1.8765881
O	2.4805738	3.2302457	1.5561981
