11
0.0022091 (energy)
C	1.3059037	-0.1054301	0.5327824
H	2.1477451	-0.5222725	-0.0072414
C	0.0742509	-0.0053775	0.0318559
H	-0.1347635	-0.3525463	-0.9752988
H	-0.7493294	0.4165754	0.5959959
O	1.6655913	0.3018920	1.7845438
H	0.8822117	0.6675305	2.2306556
C	5.1471015	0.6279300	-0.5073041
H	5.4810838	0.7448451	-1.5506247
H	5.1430032	-0.4045497	-0.1229545
O	4.8033678	1.5819213	0.1793449
