11
0.00138535 (energy)
C	0.4060152	-1.1997614	0.5582964
H	1.2461897	-1.1046974	1.2359024
C	-0.1959604	-2.3551253	0.2742786
H	0.1499097	-3.2771074	0.7313307
H	-1.0353173	-2.4199216	-0.4082639
O	0.0447175	0.0078757	0.0355445
H	-0.7096987	-0.1249924	-0.5641165
C	3.3732019	1.9895829	1.6715093
H	2.7567342	2.4443744	2.4632565
H	4.4599303	2.1417728	1.7695676
O	2.8832144	1.3571152	0.7443439
