11
0.00139524 (energy)
C	0.0250183	-0.0176803	0.0781625
H	-0.2978887	0.2105159	-0.9306674
C	-0.7153949	0.2003096	1.1654413
H	-1.7073592	0.6314819	1.0723224
H	-0.3658293	-0.0382501	2.1631766
O	1.2797865	-0.5538852	0.0934642
H	1.5272867	-0.7421078	1.0152596
C	5.1569152	-0.0071956	0.3988438
H	5.9541898	0.7137757	0.6402666
H	4.4777168	-0.2595424	1.2287633
O	5.0338676	-0.4955003	-0.7174701
