11
0.00192672 (energy)
C	0.9839561	-0.4303254	-0.9203301
H	0.7659589	-0.7577892	-1.9299462
C	0.0574535	-0.0243790	-0.0515915
H	-0.9893774	-0.0077381	-0.3387186
H	0.3052889	0.2980149	0.9530092
O	2.3209858	-0.4862409	-0.6530883
H	2.4694318	-0.1846957	0.2598330
C	2.7170264	0.5740325	4.0598704
H	2.9641527	0.8617880	3.0255317
H	1.6868673	0.2180057	4.2204105
O	3.5329210	0.6451619	4.9703623
