11
0.00193887 (energy)
C	-0.8611283	-0.7473774	0.8368047
H	-1.7933826	-1.1891195	0.5053746
C	-0.0482949	-0.0425650	0.0491197
H	-0.3039961	0.1188459	-0.9935390
H	0.8790348	0.3879683	0.4086796
O	-0.6266076	-1.0033208	2.1565342
H	0.2168409	-0.5897113	2.4093442
C	2.5322783	-0.2942535	5.2452789
H	2.3189885	0.3100517	4.3491461
H	3.5983225	-0.4061192	5.4998211
O	1.6437355	-0.8073704	5.9138158
