11
0.00140634 (energy)
C	0.0811889	-0.0146730	0.0155226
H	-0.9667020	0.1747089	-0.1848255
C	0.9902121	0.9432646	0.1997476
H	0.6986976	1.9879795	0.1532301
H	2.0326950	0.7237137	0.3987692
O	0.3501208	-1.3519511	0.0549671
H	1.2979816	-1.4742225	0.2366279
C	1.8231735	-2.7661426	-2.6697773
H	1.4755658	-3.7732974	-2.9500262
H	2.8423259	-2.7140522	-2.2546016
O	1.1234498	-1.7709739	-2.8103646
