11
0.00206327 (energy)
C	0.0713387	-0.0379220	-0.0228166
H	-0.8494173	0.4515310	0.2716733
C	0.5233120	-1.1672194	0.5233647
H	-0.0393690	-1.6540102	1.3139333
H	1.4489413	-1.6345858	0.2081479
O	0.7058388	0.6456962	-1.0189435
H	1.5235561	0.1721868	-1.2502837
C	3.6473733	2.2463286	-2.6538478
H	4.6106294	1.9658863	-3.1090634
H	3.7039997	2.6356245	-1.6247715
O	2.5846673	2.1329134	-3.2517875
