11
0.00206564 (energy)
C	1.2890484	-0.1180935	-0.5698817
H	1.9742728	0.7121511	-0.6933381
C	0.0735504	-0.0083180	-0.0328340
H	-0.2848533	0.9563546	0.3128933
H	-0.5908984	-0.8573139	0.0780550
O	1.8263929	-1.2842721	-1.0319223
H	1.1794521	-1.9989996	-0.9014500
C	0.8786336	-0.0219684	3.6238156
H	1.7850653	0.5763957	3.4392259
H	0.3207647	0.2313920	4.5394284
O	0.5154235	-0.9094507	2.8621120
