11
0.00142301 (energy)
C	-0.0298036	-0.0784818	0.0004873
H	0.3548669	0.9344689	-0.0058020
C	-1.1754985	-0.4375195	0.5804714
H	-1.7862855	0.3036617	1.0865973
H	-1.5356456	-1.4596658	0.5707852
O	0.8039144	-0.9352027	-0.6576438
H	0.4204963	-1.8287531	-0.6268378
C	3.9858512	-1.5330339	0.3115225
H	3.1787445	-1.6148519	1.0569190
H	5.0103304	-1.5862373	0.7132282
O	3.7593692	-1.3923465	-0.8837398
