11
0.00344826 (energy)
C	-0.0572404	0.0412967	0.0454533
H	0.6815520	-0.4917123	-0.5412044
C	-1.3387768	-0.3161634	0.1337336
H	-1.6995769	-1.1891652	-0.4013037
H	-2.0559759	0.2368503	0.7290352
O	0.4888283	1.1195237	0.6790372
H	-0.2074325	1.5658410	1.1912995
C	3.5516666	1.2197843	-1.1017746
H	2.7033487	1.5170418	-1.7387409
H	4.5495974	1.3435940	-1.5518426
O	3.3957893	0.7810409	0.0308972
