11
0.00403704 (energy)
C	0.0297608	0.0680176	-0.0391891
H	-0.3543563	-0.8098736	0.4666184
C	0.3817617	0.0936020	-1.3250147
H	0.2915112	-0.8012060	-1.9330831
H	0.7633777	0.9873874	-1.8047016
O	0.1067665	1.1384501	0.8036853
H	0.4550524	1.9003760	0.3091585
C	3.4394715	1.6833801	0.4719484
H	3.5465800	1.2286363	-0.5257826
H	3.5496913	2.7789419	0.5087182
O	3.2130172	1.0156741	1.4732605
