11
0.00263936 (energy)
C	-0.1113058	-1.4075343	0.0825554
H	-0.4990091	-2.0314633	-0.7139863
C	-0.0057698	-0.0805308	0.0061973
H	-0.3176401	0.4404976	-0.8937138
H	0.3863407	0.5183694	0.8199236
O	0.2532145	-2.1497132	1.1681375
H	0.5938398	-1.5510162	1.8551070
C	2.9834733	-1.2314957	3.6364087
H	3.4931807	-0.7010600	2.8163065
H	2.4773215	-0.5894754	4.3749046
O	2.9797572	-2.4531718	3.7214534
