11
0.00149897 (energy)
C	0.0407390	0.0489321	0.0547162
H	-0.4850729	-0.5826259	-0.6514965
C	-0.1383022	0.0009315	1.3751505
H	-0.8460626	-0.7014990	1.8043828
H	0.4024223	0.6457697	2.0580731
O	0.9050678	0.8952604	-0.5768352
H	1.3529204	1.4405066	0.0928852
C	2.9649325	4.0621125	1.5956124
H	1.8748998	4.0679936	1.4358459
H	3.3148009	3.4770309	2.4610761
O	3.7361828	4.6656214	0.8602969
