11
0.00167203 (energy)
C	-1.3582076	0.1790390	0.1979593
H	-1.9086079	-0.7466916	0.3169660
C	-1.9171497	1.3890380	0.2352763
H	-2.9864334	1.4912438	0.3926302
H	-1.3408261	2.2986958	0.1129799
O	-0.0268260	-0.0506877	0.0060177
H	0.4257475	0.8044505	-0.0955049
C	1.9962861	-1.1138851	-2.3469151
H	2.7699733	-0.4404932	-2.7490129
H	1.0958373	-1.2288797	-2.9711939
O	2.1283554	-1.6957335	-1.2774530
