11
0.00374372 (energy)
C	0.0683614	-0.0095660	-0.0477818
H	-0.8139671	0.1139004	0.5689294
C	0.0483451	-0.0395361	-1.3806762
H	-0.8914106	0.0629973	-1.9144552
H	0.9479178	-0.1645092	-1.9720588
O	1.1967173	-0.1298273	0.7102045
H	1.9604989	-0.2381548	0.1175041
C	3.9778210	-1.0202742	3.6301168
H	3.9938446	-0.1602369	4.3184557
H	4.7880215	-1.7539683	3.7680446
O	3.1169168	-1.1519369	2.7691594
