11
0.00167453 (energy)
C	-0.3618651	-1.0965190	0.8167354
H	-1.0120432	-1.0191779	1.6800818
C	-0.0198372	-0.0637331	0.0458421
H	-0.3969455	0.9300607	0.2666069
H	0.6331437	-0.1712019	-0.8124406
O	0.0599118	-2.3793839	0.6203810
H	0.6383097	-2.4012895	-0.1615186
C	2.8180894	-0.8957863	3.0135080
H	3.0258413	-0.1066466	2.2733534
H	3.5197550	-0.9482378	3.8612522
O	1.8704965	-1.6634075	2.9014172
