11
0.00404275 (energy)
C	-0.9970419	-0.8712968	0.4033857
H	-0.6368459	-1.7040179	0.9957661
C	-2.2772639	-0.6839041	0.0811713
H	-3.0325477	-1.3884713	0.4153946
H	-2.6087409	0.1593652	-0.5134737
O	0.0218184	-0.0432610	0.0312655
H	-0.3462733	0.6865837	-0.4962060
C	3.2139156	-1.4496095	-0.1006118
H	4.1854246	-1.5372299	-0.6126902
H	2.5135299	-2.2839663	-0.2651245
O	2.9313964	-0.4889344	0.6043883
