11
0.00211368 (energy)
C	-0.8979403	1.0256961	-0.2400447
H	-1.8938810	0.6841156	-0.4959844
C	-0.5480135	2.3097380	-0.1582278
H	-1.2794726	3.0878523	-0.3533676
H	0.4570540	2.6221417	0.1002792
O	-0.0520673	-0.0208721	-0.0133583
H	0.8263449	0.3312558	0.2120061
C	2.8360620	-0.4556468	-2.5504266
H	3.4272532	-0.6892868	-3.4502247
H	3.3464764	0.1616915	-1.7940362
O	1.6882081	-0.8554436	-2.4009848
