11
0.00468953 (energy)
C	-1.2469885	0.4584683	0.3883262
H	-1.2830532	1.5258545	0.5712638
C	-2.2943120	-0.3563554	0.5190259
H	-3.2578215	0.0388036	0.8257383
H	-2.2284966	-1.4213167	0.3290036
O	0.0008595	0.0569412	0.0090579
H	-0.0136404	-0.9036986	-0.1437552
C	3.5169876	-0.6053626	0.1261718
H	3.0026447	-1.4575176	0.5984161
H	4.5910203	-0.5136636	0.3537700
O	2.9338161	0.1870250	-0.6030549
