11
0.00421201 (energy)
C	-0.5222943	-1.2685864	0.1840321
H	0.2245801	-2.0536049	0.1818531
C	-1.8283007	-1.4822476	0.3471357
H	-2.2022861	-2.4914907	0.4890404
H	-2.5530552	-0.6764509	0.3448260
O	0.0417488	-0.0397724	-0.0005333
H	-0.6625834	0.6312166	0.0084639
C	3.7451729	-0.0481533	0.3522513
H	4.2224727	-1.0365310	0.4472554
H	4.0060987	0.6822869	1.1346392
O	2.9759559	0.2206288	-0.5619698
