11
0.00254346 (energy)
C	-0.0407853	0.0675872	-0.0285729
H	0.4856235	-0.8047492	0.3402131
C	0.1908427	0.6325507	-1.2139299
H	0.9457129	0.2203516	-1.8763775
H	-0.3519496	1.5057088	-1.5567914
O	-0.9662484	0.5116784	0.8705900
H	-1.4123213	1.2923718	0.4992037
C	3.7755245	0.9222795	-0.6375247
H	3.8917270	1.0134172	-1.7292766
H	4.4936348	0.2526378	-0.1378713
O	2.9061932	1.5250647	-0.0205547
