11
0.00442987 (energy)
C	-0.7690900	0.1176503	-1.1448274
H	-0.4079976	-0.4748337	-1.9770864
C	-1.8513751	0.8947441	-1.1966986
H	-2.4307485	0.9625204	-2.1122895
H	-2.1892577	1.4768696	-0.3472587
O	0.0213513	-0.0324488	-0.0426179
H	-0.3388613	0.5149856	0.6763768
C	3.1147067	-1.4658060	1.4495360
H	3.7065279	-0.9212584	0.6965772
H	3.5959046	-1.5897508	2.4328173
O	1.9966391	-1.9040700	1.2095604
