11
0.0028575 (energy)
C	0.0474519	0.0682764	-0.0115990
H	-0.5650011	-0.8129554	0.1381072
C	-0.4426719	1.2943965	-0.1968411
H	-1.5159681	1.4573558	-0.2041447
H	0.1949686	2.1582661	-0.3442408
O	1.3775465	-0.2357100	0.0135694
H	1.8869063	0.5815663	-0.1242825
C	3.5650085	-2.3375364	-1.8541110
H	4.2797444	-3.1158979	-2.1656191
H	3.9436486	-1.3035551	-1.8897525
O	2.4257277	-2.6038711	-1.4923875
