11
0.00468115 (energy)
C	0.0288420	0.0179496	-0.0767713
H	-0.3434164	-0.2137224	0.9141030
C	0.1214920	1.2538856	-0.5684873
H	-0.1856282	2.1043328	0.0323376
H	0.4982172	1.4556369	-1.5644578
O	0.3888111	-1.1110695	-0.7534775
H	0.7154555	-0.8562954	-1.6336960
C	4.0964751	-1.5954951	0.5569847
H	4.7913451	-1.4729712	1.4030785
H	4.5475963	-1.5084222	-0.4443464
O	2.9023721	-1.8138936	0.7187224
