11
-0.00396456 (energy)
C	-0.8427409	-0.0827616	-1.0949471
H	-1.3985168	0.8269654	-1.2888284
C	-0.9456635	-1.1905132	-1.8299299
H	-1.6174493	-1.2190577	-2.6822578
H	-0.3765209	-2.0867037	-1.6119805
O	-0.0282825	0.0496012	-0.0080567
H	0.4488635	-0.7872068	0.1278659
C	3.2775480	0.8853831	-1.2401789
H	2.5938837	1.3966596	-0.5438092
H	4.1266795	1.4880084	-1.6001433
O	3.1051494	-0.2752816	-1.5907143
