18
0.00128182 (energy)
C	-1.1655165	2.8257719	0.2617325
O	-1.3069780	3.7191584	-0.5686458
H	-0.3214508	2.8719883	0.9723334
C	-2.0029109	1.5727067	0.3685147
Cl	-3.6628499	1.9051157	-0.1993134
H	-2.0826648	1.3039799	1.4267479
C	-1.3788635	0.4370582	-0.4482428
H	-1.2804593	0.7199083	-1.5032471
H	-2.0394281	-0.4372822	-0.4085186
N	-0.0595805	0.0177695	0.0486915
H	0.6601819	0.6453346	-0.3167092
H	0.1676496	-0.8922302	-0.3598271
O	3.7525679	-1.3190582	-1.5858261
H	3.0206110	-0.6794140	-1.6093639
C	4.0637466	-1.6448471	-2.9279596
H	4.8856602	-2.3645592	-2.9375442
H	4.3673374	-0.7412369	-3.4622087
H	3.1883072	-2.0884246	-3.4085586
