18
0.00139445 (energy)
C	0.2640906	0.3614928	0.4837352
O	-0.1879613	-0.2852819	-0.4570147
H	-0.1613999	0.2233960	1.4934004
C	1.3246159	1.4339820	0.3950941
Cl	2.4328757	1.0773497	-0.9587506
H	1.9258681	1.3965918	1.3091675
C	0.6823474	2.8118888	0.2077728
H	0.0631370	2.8370613	-0.6970291
H	1.4729032	3.5607894	0.0790707
N	-0.1425292	3.2313212	1.3509743
H	-1.0723782	2.8129349	1.2751638
H	-0.3116495	4.2376580	1.2781376
O	-3.2645572	6.3898710	2.6940524
H	-2.4636172	6.0943643	2.2286165
C	-3.5317300	5.4382984	3.7076703
H	-4.4291724	5.7414255	4.2520326
H	-2.6865493	5.3938597	4.3988981
H	-3.6971322	4.4580247	3.2539787
