11
0.00561942 (energy)
C	-1.3593465	-0.1913962	-0.3404432
H	-2.0492629	-0.7930098	0.2393470
C	-0.0776193	-0.0100365	-0.0207709
H	0.3344269	-0.4784226	0.8677144
H	0.5897725	0.5979255	-0.6203984
O	-1.9668656	0.3540381	-1.4338850
H	-1.3129625	0.8833567	-1.9223760
C	-3.2134824	3.6829885	-2.3726766
H	-3.5325160	4.7364435	-2.3259704
H	-2.4856832	3.4419381	-3.1638523
O	-3.6393972	2.8364672	-1.5969594
