11
0.00514349 (energy)
C	-0.9970419	-0.9385818	0.2023421
H	-0.6368459	-1.8810040	0.5975373
C	-2.2772639	-0.6850458	-0.0708933
H	-3.0325477	-1.4457844	0.1005619
H	-2.6087409	0.2681645	-0.4659831
O	0.0218184	-0.0490678	0.0210095
H	-0.3462733	0.7787414	-0.3334358
C	3.6859251	-1.1835803	0.9965741
H	4.1803474	-0.7574859	1.8841109
H	3.8730786	-2.2543197	0.8170010
O	2.9757314	-0.5118862	0.2588813
