11
0.00536876 (energy)
C	0.0447788	-0.0654450	0.0275625
H	-0.5331734	0.7792427	-0.3281818
C	0.0709120	-0.4690928	1.2981104
H	-0.5099654	0.0568132	2.0494945
H	0.6590732	-1.3185529	1.6253209
O	0.7388207	-0.6601417	-0.9857661
H	1.2408508	-1.4098045	-0.6219497
C	2.7050828	2.5999990	0.9660327
H	2.7971858	3.6908641	1.0895712
H	3.4621216	2.1299373	0.3181977
O	1.8203005	1.9531194	1.5123348
