11
0.528752 (energy)
C	-1.1085879	0.8398590	0.2569570
H	-2.0354820	0.4987759	0.7026135
C	-0.0626566	0.0493138	0.0141145
H	-0.1067007	-1.0059611	0.2651699
H	0.8527417	0.4187902	-0.4332288
O	-1.1484541	2.1749659	-0.0224948
H	-0.2994688	2.4360245	-0.4193112
C	2.5685944	0.6316642	2.5076153
H	1.7902837	1.3705088	2.2584722
H	2.9727407	0.0621036	1.6555458
O	2.9584789	0.4552633	3.6550524
