18
0.00171783 (energy)
C	1.7893767	-2.1084278	-1.3283758
O	1.8822357	-2.4639266	-2.4999887
H	1.2162589	-2.7274046	-0.6156765
C	2.3218658	-0.8194298	-0.7472186
Cl	3.7804370	-0.3101351	-1.6424900
H	2.6392472	-1.0139838	0.2822717
C	1.2540746	0.2773939	-0.8022191
H	0.9233737	0.4524952	-1.8330916
H	1.6867533	1.2167661	-0.4378513
N	0.0734139	-0.0158617	0.0243979
H	-0.5624819	-0.6289158	-0.4905921
H	-0.4575556	0.8493040	0.1515988
O	2.4617122	-5.8744437	-2.7564173
H	2.4693613	-5.3496726	-1.9378720
C	1.9320129	-7.1462190	-2.4303813
H	1.9094160	-7.7634300	-3.3315801
H	0.9160627	-7.0308469	-2.0448486
H	2.5659786	-7.6244352	-1.6796968
