18
0.00177658 (energy)
C	-0.3156562	-2.3371133	1.9621881
O	-1.1547322	-2.5505132	2.8328722
H	0.6771153	-1.9463798	2.2472650
C	-0.5280405	-2.4736098	0.4725351
Cl	-1.7355350	-3.7485283	0.1487115
H	0.4111702	-2.8113846	0.0228420
C	-0.9860044	-1.1419584	-0.1301247
H	-1.9150019	-0.7969005	0.3395779
H	-1.1971904	-1.2854751	-1.1965197
N	0.0194683	-0.0743882	-0.0179951
H	-0.0352981	0.3526935	0.9093750
H	-0.2352014	0.6808824	-0.6593453
O	3.7591665	-0.8975399	-1.0900103
H	4.3294800	-0.5724170	-0.3727257
C	3.7840281	-2.3118923	-1.0327222
H	3.1507485	-2.7109689	-1.8285326
H	3.4021613	-2.6450121	-0.0645745
H	4.8084613	-2.6652137	-1.1735460
