18
0.00450765 (energy)
C	-1.0094701	0.3912340	-2.8705096
O	-1.8831361	1.1249367	-3.3244556
H	-1.2282322	-0.6787847	-2.7069866
C	0.3627217	0.8248144	-2.4101817
Cl	0.8962239	2.2436789	-3.3538558
H	1.0686509	0.0182283	-2.6327018
C	0.3492287	1.1553256	-0.9145863
H	-0.3757420	1.9480607	-0.6938826
H	1.3371634	1.5305188	-0.6219941
N	0.0468642	-0.0053649	-0.0633357
H	-0.9651807	-0.1438217	-0.0185226
H	0.3140330	0.2183642	0.8985305
O	-3.8395950	2.9161441	-1.5554757
H	-3.2887806	2.6388906	-0.8036821
C	-5.1848963	2.8972953	-1.1149054
H	-5.8330111	3.2049697	-1.9388611
H	-5.3056676	3.5921340	-0.2802112
H	-5.4526471	1.8850913	-0.8020424
