18
0.00462076 (energy)
C	-1.0818614	1.3845696	-2.5148483
O	-0.4998359	1.9405125	-3.4421307
H	-1.5404776	1.9943859	-1.7165177
C	-1.1700633	-0.1067738	-2.2891948
Cl	-1.1322676	-0.9585034	-3.8580957
H	-2.1425280	-0.3272398	-1.8373769
C	-0.0207909	-0.5850054	-1.3966182
H	0.9509016	-0.3415660	-1.8430178
H	-0.0695203	-1.6765767	-1.3044645
N	-0.0651043	-0.0238775	-0.0377856
H	0.3534735	0.9089709	-0.0378146
H	0.5511078	-0.5772091	0.5628202
O	1.8664503	0.0004881	-5.1433373
H	2.4554060	0.1583042	-4.3859173
C	2.5778921	-0.8081124	-6.0622001
H	1.9421710	-1.0050637	-6.9286227
H	2.8442157	-1.7547609	-5.5857243
H	3.4805123	-0.2846187	-6.3867948
