18
0.00518677 (energy)
C	0.3102651	-1.7051733	2.5314104
O	-0.3542114	-2.6467716	2.9551350
H	0.1656037	-0.6991309	2.9632534
C	1.2835701	-1.7543260	1.3768259
Cl	2.0104042	-3.3816644	1.2681805
H	2.1025675	-1.0599923	1.5903120
C	0.5797803	-1.3974862	0.0639776
H	-0.2538293	-2.0821372	-0.1336828
H	1.2903243	-1.5061839	-0.7640967
N	0.0701153	-0.0181973	0.0314508
H	-0.8364853	0.0239348	0.5023158
H	-0.1377208	0.2289041	-0.9393043
O	4.4855270	-2.7266098	-0.2951917
H	4.3486155	-1.7769642	-0.4529517
C	5.8702530	-2.9784154	-0.4482308
H	6.0593240	-4.0407417	-0.2769588
H	6.4315086	-2.3885465	0.2805681
H	6.1796124	-2.7144124	-1.4624939
