11
-0.004044 (energy)
C	1.1385959	-0.1359897	-0.8279271
H	1.6533227	0.6978130	-1.2904306
C	0.0651260	-0.0093623	-0.0472003
H	-0.3459021	0.9739254	0.1596211
H	-0.4295416	-0.8624505	0.4023853
O	1.7264432	-1.3259773	-1.1450360
H	1.2334709	-2.0430475	-0.7100881
C	3.3111079	-2.1023092	2.1892974
H	3.2372050	-1.5752252	3.1538969
H	4.1616083	-1.8104751	1.5527145
O	2.5019176	-2.9556102	1.8474972
