11
-0.0037164 (energy)
C	-0.7860936	0.1202721	1.1329441
H	-1.8504139	0.1084282	0.9300599
C	-0.2607119	0.2387281	2.3527181
H	-0.9085301	0.3310641	3.2189626
H	0.8091583	0.2475115	2.5255856
O	-0.0560340	-0.0009162	-0.0135809
H	0.8893001	0.0145413	0.2155381
C	3.8485886	-1.3832785	0.4115137
H	3.5415189	-1.2841363	-0.6418668
H	4.3355628	-2.3353187	0.6765258
O	3.6611408	-0.4945832	1.2329897
