11
-0.00335722 (energy)
C	-0.0727502	1.3820254	-0.0261538
H	-1.0271908	1.7633242	-0.3692782
C	0.9501666	2.1542390	0.3415875
H	0.8569911	3.2353357	0.3080906
H	1.8942711	1.7442957	0.6809927
O	-0.0516784	0.0175872	-0.0185774
H	0.8201738	-0.2791213	0.2948373
C	4.8380657	0.1924998	0.8703010
H	4.5431552	0.6288398	1.8379613
H	5.9168119	0.2162072	0.6478139
O	4.0213361	-0.2868667	0.0938350
