11
-0.00390314 (energy)
C	-1.3559459	-0.2700519	-0.0667350
H	-1.6356770	-1.2173112	0.3788326
C	-2.2210089	0.5724848	-0.6321590
H	-3.2780418	0.3273604	-0.6663540
H	-1.9119771	1.5142759	-1.0704642
O	-0.0121294	-0.0508415	0.0243537
H	0.1925023	0.8068919	-0.3865113
C	3.0352354	-1.3260498	-0.2773967
H	2.2770431	-1.7017231	-0.9829073
H	3.2294141	-1.9675823	0.5969526
O	3.6229373	-0.2661443	-0.4533106
