11
-0.00328059 (energy)
C	0.9901047	-0.7211563	-0.7070950
H	1.0374002	-0.7829671	-1.7878460
C	0.0573406	-0.0417167	-0.0390984
H	-0.7177859	0.4943049	-0.5780172
H	0.0350406	0.0024084	1.0435550
O	2.0019686	-1.4239377	-0.1202196
H	1.9202369	-1.3406700	0.8455844
C	5.2300821	-2.9658190	1.4147075
H	4.5110527	-2.9034015	0.5823421
H	5.9751367	-3.7738462	1.3389351
O	5.2029788	-2.1889139	2.3609753
