11
-0.00263278 (energy)
C	0.6105603	0.7840441	1.0064035
H	0.2034511	0.9142701	2.0020859
C	0.0361316	0.0452430	0.0566082
H	-0.8970986	-0.4717572	0.2575210
H	0.4668858	-0.0669438	-0.9315454
O	1.7802121	1.4692819	0.8496971
H	2.1079394	1.3241297	-0.0546904
C	4.7899235	-0.7034896	-2.0924051
H	4.7124822	0.0562642	-2.8864507
H	5.4383808	-1.5644038	-2.3206278
O	4.1949439	-0.5980955	-1.0272148
