11
-0.003023 (energy)
C	-0.0456340	0.0294143	0.0640330
H	0.5433560	-0.3502308	-0.7624297
C	-1.3562610	0.2659371	-0.0009315
H	-1.8993253	0.0782787	-0.9220391
H	-1.9200155	0.6462015	0.8429657
O	0.7215107	0.2334238	1.1740159
H	0.1538102	0.5727889	1.8874152
C	2.6867817	-2.7991335	0.6426622
H	3.3065679	-3.3758152	1.3476690
H	2.9138547	-1.7228196	0.5814895
O	1.8043685	-3.3197266	-0.0282094
