11
-0.0035349 (energy)
C	-1.2479645	-0.5774847	-0.1583249
H	-1.3471033	-1.5433876	0.3225943
C	-2.2243442	0.0179452	-0.8439285
H	-3.1910549	-0.4651016	-0.9474173
H	-2.0962304	0.9855909	-1.3149183
O	-0.0025644	-0.0511593	0.0264809
H	0.0406990	0.8119350	-0.4202712
C	2.4746081	-1.8447067	-1.2013515
H	2.9336640	-0.8464222	-1.1211839
H	2.0282761	-2.2379123	-0.2740257
O	2.4613396	-2.4751990	-2.2511335
