11
0 (energy)
C	-2.5231076	2.4626613	-0.1472680
H	-2.2602233	1.4192104	-0.2744768
C	-1.8238022	3.4757169	-0.6597099
H	-0.9309025	3.2808056	-1.2456396
H	-2.1110659	4.5107881	-0.5158698
O	-3.6554756	2.6065681	0.6005466
H	-3.8527373	3.5551238	0.6884157
C	-7.2314285	1.5551524	0.6116491
H	-7.5996130	0.5869348	0.2365141
H	-6.3592277	1.5037144	1.2827495
O	-7.7565914	2.6176225	0.3032661
