11
0 (energy)
C	-2.9098554	2.9741657	-0.4330508
H	-3.2083253	3.4811638	-1.3429677
C	-3.3317866	1.7584154	-0.0840069
H	-4.0166790	1.2135365	-0.7263489
H	-3.0159631	1.2755711	0.8334350
O	-2.0514215	3.7350796	0.3060665
H	-1.8112049	3.2425856	1.1098927
C	-7.6108601	1.9545254	0.7735729
H	-7.4520460	1.5187506	1.7728775
H	-8.6611383	2.0281492	0.4491487
O	-6.6819821	2.3318868	0.0703496
