11
0 (energy)
C	-2.9432418	2.6022385	0.2755076
H	-3.6396398	1.9546009	0.7948105
C	-1.8566312	3.1323617	0.8377825
H	-1.6238391	2.9241817	1.8775146
H	-1.1772207	3.7775385	0.2930524
O	-3.3185835	2.8048375	-1.0207428
H	-2.6675931	3.3892801	-1.4462183
C	-7.1106569	2.6932520	0.1446625
H	-7.5309265	3.5055075	0.7589471
H	-7.1596517	2.8480094	-0.9450189
O	-6.6216868	1.6856379	0.6400018
