11
0 (energy)
C	-2.4393979	2.7961387	-0.3863142
H	-1.6460234	2.4742879	-1.0504294
C	-3.3761498	3.6846970	-0.7192805
H	-3.3751251	4.1338266	-1.7076404
H	-4.1585301	3.9879766	-0.0333613
O	-2.3576336	2.1789965	0.8280346
H	-3.0861190	2.4967598	1.3890395
C	-7.0948859	2.4261021	0.9245447
H	-6.4096046	2.9187860	1.6326291
H	-8.1533429	2.3990650	1.2290007
O	-6.7060595	1.9409046	-0.1305081
