11
0 (energy)
C	-2.9673461	2.9454388	0.3433443
H	-3.5368688	3.4118000	1.1384739
C	-2.6941494	1.6415385	0.2875421
H	-3.0478167	0.9762693	1.0691495
H	-2.1214339	1.2025455	-0.5210770
O	-2.5675735	3.8584871	-0.5887060
H	-2.0620529	3.3973547	-1.2802237
C	-6.5563434	1.7529271	0.6494261
H	-7.1098345	1.7792379	1.6016270
H	-6.2944732	0.7485630	0.2800581
O	-6.2524748	2.7720309	0.0421122
