11
0 (energy)
C	-3.1384342	2.6897722	-0.1204952
H	-4.1534731	2.5302032	-0.4644628
C	-2.4554442	1.8152888	0.6189032
H	-2.9124378	0.8755018	0.9130647
H	-1.4401628	2.0021480	0.9488581
O	-2.6510990	3.8938682	-0.5386460
H	-1.7415942	3.9939566	-0.2082308
C	-7.9453187	1.7279203	0.3673393
H	-8.5586278	1.7723529	-0.5467773
H	-8.2620984	0.9842951	1.1159567
O	-6.9761797	2.4564571	0.5397999
