11
0 (energy)
C	-2.7676749	2.4058528	-0.0846475
H	-2.9728400	1.3504200	0.0496991
C	-2.2580159	2.9304792	-1.1995112
H	-2.0218880	2.2912812	-2.0446404
H	-2.0631125	3.9913143	-1.3054555
O	-3.0959008	3.1256455	1.0272695
H	-2.8958131	4.0632418	0.8621360
C	-6.2568478	2.4237852	-0.2681401
H	-7.1904561	2.9439408	-0.5356191
H	-5.6243950	2.1170828	-1.1164873
O	-5.9430343	2.2013658	0.8945248
