11
0 (energy)
C	-3.0635417	2.9888919	0.2421026
H	-4.0217600	3.2690555	0.6632987
C	-1.9250912	2.9560213	0.9354686
H	-1.9200841	3.2197436	1.9885589
H	-0.9803446	2.6714738	0.4870610
O	-3.1704073	2.6756520	-1.0817756
H	-2.2902363	2.4314327	-1.4165097
C	-8.0319460	2.4850587	0.4046719
H	-8.5801679	3.3468298	-0.0082866
H	-6.9515485	2.6381478	0.5565300
O	-8.5864488	1.4275882	0.6767409
