11
0 (energy)
C	-2.9676468	2.6613751	0.2994923
H	-3.3039207	2.1869838	1.2137969
C	-3.7687908	2.9614048	-0.7232769
H	-4.8284091	2.7308734	-0.6719143
H	-3.4039206	3.4364393	-1.6264904
O	-1.6263940	2.9111562	0.3285331
H	-1.3699668	3.3353740	-0.5085304
C	-7.7256925	1.5090385	0.7634958
H	-8.4044249	1.3058759	1.6071655
H	-7.0761031	0.6710279	0.4642840
O	-7.6953160	2.5939148	0.1961691
