11
0 (energy)
C	-3.1226830	2.9562060	-0.2304320
H	-3.9587736	3.0549927	-0.9125419
C	-3.1110299	3.4438202	1.0105366
H	-3.9744702	3.9780999	1.3947107
H	-2.2594470	3.3296343	1.6711052
O	-2.0886204	2.2725078	-0.8009268
H	-1.3635177	2.2082155	-0.1555715
C	-7.3391460	1.7757545	0.6911204
H	-6.3923429	2.3381174	0.7234178
H	-7.2824992	0.7305061	1.0346356
O	-8.3847302	2.2788986	0.2995358
