11
0 (energy)
C	-2.3522272	2.6043970	-0.1206192
H	-1.4042596	2.2231489	-0.4812955
C	-3.1651933	1.9314696	0.6943417
H	-2.8931884	0.9381938	1.0378389
H	-4.1085297	2.3386044	1.0392190
O	-2.6062811	3.8547591	-0.6046071
H	-3.4633527	4.1557545	-0.2564389
C	-7.1687309	2.1581049	-0.1751496
H	-7.7664470	2.8286247	-0.8130131
H	-6.4174349	1.5475078	-0.7009647
O	-7.3287445	2.0956568	1.0373828
