11
0 (energy)
C	-2.4215963	3.2002118	-0.0681589
H	-1.9252945	4.1439177	-0.2609901
C	-1.8234005	2.1408918	0.4776519
H	-0.7759518	2.1906693	0.7586274
H	-2.3456914	1.2087355	0.6589789
O	-3.7302799	3.2343909	-0.4533496
H	-4.1342526	2.3702516	-0.2624039
C	-7.5909510	1.5680251	0.4759288
H	-7.8043345	0.9565954	-0.4153358
H	-7.9014416	1.1297446	1.4378341
O	-7.0450829	2.6618036	0.4023393
