11
0 (energy)
C	-2.3273405	2.6410054	-0.1095050
H	-1.2886673	2.3339057	-0.1399657
C	-3.3188911	1.9776892	-0.7051102
H	-3.1099625	1.0703968	-1.2634500
H	-4.3496905	2.3090092	-0.6575453
O	-2.4899568	3.7874378	0.6126041
H	-3.4334292	4.0246100	0.6129649
C	-8.0348124	2.0536793	0.1978908
H	-7.0889113	1.4906922	0.2431443
H	-8.0681628	2.8670968	-0.5444000
O	-8.9856827	1.7927463	0.9241817
