11
0 (energy)
C	-2.9948737	2.5077683	-0.1433680
H	-3.8367138	1.8455248	-0.3071324
C	-1.7340978	2.2012168	-0.4505762
H	-1.4993378	1.2381635	-0.8932837
H	-0.9113259	2.8844935	-0.2751850
O	-3.3880056	3.6894398	0.4145682
H	-2.6033484	4.2499639	0.5430862
C	-7.0447121	1.6565060	0.6273294
H	-6.6937705	1.2887736	1.6047465
H	-7.7573723	1.0012308	0.1015102
O	-6.6678196	2.7224591	0.1567608
