11
0 (energy)
C	-2.7494602	3.1499276	0.3180124
H	-2.7000545	4.0161719	0.9670579
C	-3.2349528	1.9653861	0.6909263
H	-3.6124921	1.8235195	1.6988508
H	-3.2718156	1.1156322	0.0192552
O	-2.2538525	3.4249447	-0.9233303
H	-2.3178651	2.6224661	-1.4695185
C	-6.5158009	2.7316845	-0.0253985
H	-6.9818878	3.6840887	0.2736343
H	-6.1130357	2.7013931	-1.0503953
O	-6.4498111	1.7708525	0.7310314
