11
0 (energy)
C	-2.8857379	3.2280605	0.1801045
H	-3.0357602	4.0861374	0.8245248
C	-3.7588604	2.8285092	-0.7450563
H	-4.6874676	3.3720290	-0.8894471
H	-3.5817690	1.9652894	-1.3759864
O	-1.6951641	2.6118866	0.4351664
H	-1.6033052	1.8507782	-0.1637217
C	-7.2557708	2.3727189	0.9916607
H	-6.8248174	1.8732772	1.8740259
H	-7.7564539	3.3343084	1.1876658
O	-7.1831200	1.8911839	-0.1319873
