11
0 (energy)
C	-3.1414265	2.8114848	0.1443316
H	-4.1384914	2.4763116	0.4043328
C	-2.5696297	3.9080526	0.6428233
H	-3.1061333	4.5271378	1.3551936
H	-1.5695765	4.2191329	0.3640666
O	-2.5489232	1.9721705	-0.7538245
H	-1.6598540	2.3105643	-0.9573845
C	-7.3590964	1.8472051	0.9703049
H	-8.2816590	2.0064732	1.5510313
H	-6.6289764	1.1550424	1.4192943
O	-7.1585611	2.4024618	-0.1026417
