11
0 (energy)
C	-2.7295299	2.7352189	0.4077593
H	-2.8853635	2.2277312	1.3523503
C	-2.0815652	3.8937256	0.2816225
H	-1.6716234	4.3874898	1.1572471
H	-1.9407706	4.3786604	-0.6773341
O	-3.2783765	2.0406522	-0.6307673
H	-3.1150300	2.5310854	-1.4548936
C	-6.4200804	2.1052744	0.5309386
H	-5.7751628	2.9733356	0.7413723
H	-5.9189669	1.1244390	0.5554942
O	-7.6142250	2.2227664	0.2860849
