11
0 (energy)
C	-2.4583748	2.9662621	-0.3897201
H	-2.0760565	3.2751830	-1.3553705
C	-1.6884288	2.5847927	0.6298734
H	-0.6082713	2.5704112	0.5220456
H	-2.0993480	2.2806131	1.5854898
O	-3.8214860	3.0173005	-0.3507882
H	-4.1191778	2.7328946	0.5306220
C	-7.3301481	2.5343338	0.8100319
H	-6.8228462	2.3503024	1.7705049
H	-7.4191194	3.5920902	0.5150885
O	-7.7660439	1.6239400	0.1165502
