11
0 (energy)
C	-3.0292686	2.6495619	0.2347752
H	-3.9224352	2.2001364	0.6523280
C	-1.8617637	2.7218981	0.8747801
H	-1.7630917	2.3161781	1.8768924
H	-0.9841071	3.1778195	0.4315677
O	-3.2509939	3.1295309	-1.0232632
H	-2.4259374	3.5221957	-1.3571602
C	-8.0985076	1.9399958	0.4992575
H	-8.7583694	2.3745625	1.2670242
H	-8.5776248	1.2263714	-0.1899034
O	-6.9117119	2.2307604	0.4173374
