11
0 (energy)
C	-2.3561088	2.7768044	0.2286379
H	-1.3968584	2.4589185	0.6196206
C	-3.2580370	3.4621789	0.9319826
H	-3.0528826	3.7358408	1.9623197
H	-4.2104003	3.7670528	0.5140846
O	-2.5221402	2.3880163	-1.0688483
H	-3.3928757	2.6934378	-1.3769526
C	-6.5921496	1.7027908	0.1773115
H	-6.1673640	1.6936206	-0.8391552
H	-6.4171595	0.7928548	0.7732568
O	-7.2171046	2.6604751	0.6155019
