11
0 (energy)
C	-2.9090957	2.4466385	0.0388905
H	-3.2318604	1.4148314	-0.0337538
C	-3.2121580	3.2529220	1.0567149
H	-3.8173605	2.8873948	1.8805436
H	-2.8748795	4.2818686	1.1024827
O	-2.1567257	2.8133993	-1.0388938
H	-1.8902617	3.7428343	-0.9314758
C	-7.5859317	1.8272617	0.9941912
H	-6.7337332	2.3796306	1.4212481
H	-7.8606028	0.8983253	1.5189663
O	-8.1877161	2.2196261	0.0024026
