11
0 (energy)
C	-2.7075886	3.2621996	-0.2453490
H	-2.8081950	4.3044072	-0.5242072
C	-2.1034111	2.3434172	-0.9994809
H	-1.6744626	2.6203655	-1.9575397
H	-2.0176729	1.3069960	-0.6944192
O	-3.2753410	3.0115944	0.9699893
H	-3.1617696	2.0682324	1.1787010
C	-6.7512721	1.8247755	0.8416179
H	-6.1012405	1.8611198	1.7303638
H	-7.5206393	1.0362394	0.8480212
O	-6.6269410	2.6085392	-0.0911173
