11
0 (energy)
C	-2.9251976	2.6089490	0.2929111
H	-3.2582714	1.8151834	0.9509978
C	-3.3349459	3.8745269	0.3841537
H	-4.0452308	4.1637714	1.1525330
H	-2.9842022	4.6481806	-0.2889150
O	-2.0374025	2.1500756	-0.6363080
H	-1.7666644	2.8932736	-1.2026547
C	-7.1702686	2.3202264	0.4508654
H	-6.2543988	1.8281641	0.8152672
H	-7.0319718	3.3288633	0.0298174
O	-8.2686967	1.7819776	0.5098804
