11
0 (energy)
C	-2.3773901	2.6219876	0.1527093
H	-1.7458743	1.8593012	0.5926837
C	-1.9774143	3.8695361	-0.0953801
H	-0.9638864	4.1753216	0.1450990
H	-2.6319771	4.6120247	-0.5367881
O	-3.6278473	2.1448818	-0.1135988
H	-4.1576719	2.8603662	-0.5057200
C	-7.1983061	1.6573740	0.7915494
H	-6.6050204	1.5542917	1.7141096
H	-7.8923745	0.8287849	0.5783243
O	-7.0933055	2.6281527	0.0524267
