11
0 (energy)
C	-2.3984061	2.8210291	0.2877924
H	-1.5160586	2.9411505	0.9051367
C	-3.3517124	1.9174390	0.5172231
H	-3.2723420	1.2442077	1.3651817
H	-4.2242894	1.8201219	-0.1181676
O	-2.4090961	3.7081569	-0.7490697
H	-3.2154137	3.5645643	-1.2740688
C	-7.4014946	2.6965615	0.2594545
H	-8.3366687	3.0087244	-0.2322110
H	-6.6553133	3.4930389	0.4097646
O	-7.2045537	1.5413840	0.6151484
