11
0 (energy)
C	-2.6090216	3.2861299	0.0800022
H	-2.3026637	4.3254538	0.0744726
C	-2.9313293	2.6095261	1.1828311
H	-2.8960917	3.0975440	2.1519393
H	-3.2345335	1.5693212	1.1578574
O	-2.6227099	2.7610375	-1.1794753
H	-2.9022763	1.8307543	-1.1264970
C	-7.1166758	1.5498233	0.2944657
H	-7.8395245	0.7353666	0.1274889
H	-6.0557702	1.2720905	0.1891101
O	-7.4689088	2.6878695	0.5782288
