11
0 (energy)
C	-2.7841975	2.4566413	0.1777766
H	-2.6754593	1.5555095	0.7695685
C	-3.8745655	2.7583409	-0.5279014
H	-4.7248023	2.0833281	-0.5332701
H	-3.9550969	3.6681426	-1.1113037
O	-1.6683278	3.2391199	0.2467342
H	-1.8101975	4.0332472	-0.2969805
C	-8.2889314	2.5020371	0.2317600
H	-9.3246705	2.8616833	0.1239149
H	-7.5147269	3.1411622	-0.2219826
O	-8.0164011	1.4613399	0.8169228
