11
0 (energy)
C	-2.7082344	2.6808859	-0.4539405
H	-2.8600631	2.4595644	-1.5037238
C	-1.8749390	2.0050567	0.3377539
H	-1.2969819	1.1763443	-0.0594554
H	-1.7433684	2.2493196	1.3854216
O	-3.4749181	3.7342260	-0.0479064
H	-3.3069428	3.8964922	0.8964691
C	-6.7856427	2.3110282	0.8357542
H	-6.5669602	3.0013866	1.6660039
H	-7.7071922	1.7168091	0.9425532
O	-6.0532798	2.2108431	-0.1406404
