11
0 (energy)
C	-2.3472414	3.0890098	-0.1542106
H	-1.3673809	3.3850188	-0.5096432
C	-3.2590115	3.9411446	0.3153083
H	-3.0410193	5.0037599	0.3589185
H	-4.2320992	3.6158859	0.6644356
O	-2.5277916	1.7396465	-0.2480893
H	-3.4168049	1.5203433	0.0804719
C	-7.9550309	1.7734141	0.2687188
H	-8.8002220	2.2476025	-0.2552361
H	-8.0491268	0.6887388	0.4371865
O	-6.9763039	2.4095156	0.6391336
