11
0 (energy)
C	-2.6938483	2.4015193	-0.0319281
H	-2.7057897	1.3507398	0.2322686
C	-2.3655131	2.8633137	-1.2389279
H	-2.0877483	2.1734358	-2.0298065
H	-2.3624555	3.9211520	-1.4746215
O	-3.0559239	3.1876338	1.0231161
H	-3.0312127	4.1184556	0.7414228
C	-6.1520869	2.1402131	-0.2694341
H	-5.8199742	1.1577405	-0.6411598
H	-6.6598961	2.7805161	-1.0082830
O	-5.9690240	2.4967609	0.8877611
