11
0 (energy)
C	-2.9371328	2.9976961	0.3459897
H	-3.4984955	3.5519424	1.0887972
C	-2.4123792	1.7900118	0.5558441
H	-2.5351459	1.3016392	1.5176104
H	-1.8549600	1.2588017	-0.2068369
O	-2.8364518	3.6901554	-0.8255718
H	-2.3270120	3.1570670	-1.4601416
C	-6.9498711	2.0952526	0.6327111
H	-6.5706144	1.5114799	1.4865876
H	-6.2007912	2.7081832	0.1064495
O	-8.1255728	2.0648793	0.2913288
