11
0 (energy)
C	-2.3613908	2.7529754	0.2275140
H	-1.7014543	2.4320799	1.0247530
C	-1.9389078	3.2242151	-0.9460906
H	-0.8757835	3.3054389	-1.1504020
H	-2.6230526	3.5381043	-1.7258356
O	-3.6732986	2.6138529	0.5764205
H	-4.2267649	2.9125583	-0.1657662
C	-7.2793290	2.7310005	0.4381675
H	-8.0604433	3.0991138	-0.2459994
H	-6.9048530	3.4645726	1.1698749
O	-6.8556112	1.5830678	0.3886456
