11
0 (energy)
C	-3.1547067	2.9094836	0.1069550
H	-4.0673636	3.2284194	0.5962580
C	-3.0976967	1.9388280	-0.8054507
H	-4.0010563	1.4140790	-1.1006686
H	-2.1693588	1.6407973	-1.2786833
O	-2.0768070	3.6245521	0.5416989
H	-1.2833714	3.3057293	0.0777993
C	-7.4413588	1.6156921	0.1772981
H	-8.2186611	1.6258564	-0.6033614
H	-7.0800462	0.6182861	0.4746029
O	-7.0078937	2.6443705	0.6809523
