11
0 (energy)
C	-2.5668489	3.2394508	0.1652391
H	-2.4620886	4.1697545	0.7108034
C	-1.5596396	2.6170852	-0.4480284
H	-0.5598013	3.0391190	-0.4200168
H	-1.6943365	1.6864598	-0.9868937
O	-3.8546940	2.7886544	0.1859929
H	-3.9014801	1.9552359	-0.3136225
C	-7.4511533	2.1699916	-0.1446658
H	-7.9504636	2.9960287	-0.6757808
H	-6.8312948	1.5087334	-0.7709795
O	-7.5767505	1.9982833	1.0613527
