11
0 (energy)
C	-3.1723696	2.9372886	-0.0484924
H	-4.1610431	3.3788399	-0.0080303
C	-2.9351420	1.6693835	-0.3861997
H	-3.7586313	1.0100067	-0.6424446
H	-1.9343522	1.2546692	-0.4180514
O	-2.2061852	3.8400843	0.2886139
H	-1.3390010	3.4020181	0.2388098
C	-7.3398253	2.0621809	0.5023854
H	-6.7401547	1.9027171	-0.4079430
H	-6.7679234	2.3150908	1.4094249
O	-8.5605822	1.9648177	0.5058280
