11
0 (energy)
C	-2.4074976	3.1479115	0.1275740
H	-1.8340564	4.0245751	0.4045327
C	-2.0287755	1.8962205	0.3878540
H	-1.0947255	1.7058831	0.9073693
H	-2.6235730	1.0377146	0.0984300
O	-3.5607940	3.4869846	-0.5182819
H	-4.0412039	2.6725466	-0.7469480
C	-7.1173541	1.5792700	0.4900291
H	-6.4317814	0.7669694	0.2003927
H	-8.0685695	1.2585402	0.9439868
O	-6.8405729	2.7598706	0.3188182
