11
0 (energy)
C	-2.8845342	2.6579733	0.3452731
H	-3.1604947	2.4072752	1.3626602
C	-3.1676228	1.8978921	-0.7130481
H	-3.7062573	0.9640025	-0.5853888
H	-2.8785829	2.1744261	-1.7203056
O	-2.2137373	3.8448646	0.2859984
H	-1.9869330	4.0289110	-0.6419443
C	-6.4324524	2.5384441	-0.1713094
H	-6.9520481	2.2579371	-1.1013994
H	-5.7317286	3.3844069	-0.2555063
O	-6.6211753	1.9492616	0.8855664
