11
0 (energy)
C	-3.1165272	2.8680429	0.1988911
H	-4.1226646	2.6991926	0.5639352
C	-2.2648509	3.7416562	0.7368071
H	-2.5634255	4.3374651	1.5938011
H	-1.2633212	3.8894560	0.3499269
O	-2.8340504	2.0763851	-0.8761335
H	-1.9248897	2.2608990	-1.1690026
C	-8.1679754	2.3928885	0.3369972
H	-8.5924393	3.1253912	-0.3679861
H	-7.1143887	2.5563558	0.6144671
O	-8.8234968	1.4593010	0.7824688
