11
0 (energy)
C	-3.0759387	2.5810642	0.0537660
H	-3.8771103	2.0169247	0.5163142
C	-2.7775026	2.5250560	-1.2445812
H	-3.3509390	1.8860018	-1.9089261
H	-1.9694579	3.1014183	-1.6798431
O	-2.4149422	3.3521275	0.9652143
H	-1.7075671	3.8385712	0.5076294
C	-7.1114879	2.3037796	0.7977259
H	-6.6475682	1.7428042	1.6246578
H	-6.6909374	3.3042110	0.6079094
O	-8.0330880	1.8458877	0.1338530
