11
0 (energy)
C	-2.4070601	2.5660257	-0.1888795
H	-1.5657754	1.8922800	-0.3001759
C	-3.2545291	2.8696438	-1.1725049
H	-3.1245117	2.4339523	-2.1583254
H	-4.0882039	3.5477090	-1.0318043
O	-2.4878429	3.0614339	1.0800719
H	-3.2539481	3.6586059	1.1335447
C	-6.8245134	1.6904391	0.0482205
H	-5.8023518	1.2912790	-0.0496984
H	-7.5981347	1.1620238	-0.5314720
O	-7.0835042	2.6569523	0.7542762
