11
0 (energy)
C	-2.4308625	3.2098585	-0.0399049
H	-1.9408575	4.1620271	-0.2052837
C	-1.8923893	2.2039516	0.6500982
H	-0.9043148	2.3097893	1.0872263
H	-2.4066064	1.2616900	0.7994520
O	-3.6630771	3.1721003	-0.6250669
H	-4.0641996	2.3029601	-0.4516111
C	-6.9614594	1.5678435	0.4691701
H	-6.3128770	1.0332331	1.1813947
H	-7.6521997	0.9353593	-0.1110002
O	-6.9175454	2.7839334	0.3315624
