11
0 (energy)
C	-2.7038679	3.0266530	-0.4570684
H	-2.4143670	3.5197564	-1.3774587
C	-3.8561087	2.3768613	-0.2896818
H	-4.5721372	2.3177622	-1.1035517
H	-4.1191072	1.8924682	0.6434730
O	-1.7434051	3.1550700	0.5037715
H	-2.0446480	2.6993530	1.3087347
C	-7.5789609	2.5177006	0.8704563
H	-7.1831027	3.5455418	0.8465770
H	-8.2686618	2.2936855	1.6998451
O	-7.2727938	1.6801187	0.0311369
