11
0 (energy)
C	-2.4614387	2.7590230	0.3295053
H	-1.6470693	2.6458645	1.0352516
C	-3.7054920	2.3338440	0.5519026
H	-3.9541775	1.8397371	1.4860266
H	-4.5007365	2.4609406	-0.1733666
O	-2.0530947	3.3890303	-0.8100293
H	-2.8132077	3.4685052	-1.4119453
C	-7.7997014	2.1179173	1.0871887
H	-6.9443810	1.6110178	1.5617528
H	-8.3460154	2.8281316	1.7281977
O	-8.1216913	1.9060797	-0.0752167
