11
0 (energy)
C	-2.8596028	3.1834845	0.2574261
H	-2.9402548	3.9041592	1.0625369
C	-3.8013606	2.9886649	-0.6661777
H	-4.7181465	3.5695752	-0.6412654
H	-3.6930466	2.2597637	-1.4608812
O	-1.6771195	2.5043482	0.3093890
H	-1.6483778	1.8712607	-0.4286931
C	-7.6140692	1.8651322	-0.1054496
H	-6.8057486	1.4200872	-0.7073500
H	-8.6046963	1.8922094	-0.5867818
O	-7.4241258	2.3006488	1.0232601
