11
0 (energy)
C	-3.1238395	3.0715723	0.0141534
H	-4.0571555	3.5970300	-0.1498455
C	-2.6766313	2.7028848	1.2149785
H	-3.2566501	2.9260895	2.1051086
H	-1.7380722	2.1777235	1.3487516
O	-2.4681326	2.8366574	-1.1593270
H	-1.6397389	2.3651834	-0.9647321
C	-7.7380594	2.2761715	0.4652238
H	-8.2714600	2.2693761	1.4291580
H	-8.3493092	2.5357472	-0.4138382
O	-6.5453557	2.0127839	0.3767727
