11
0 (energy)
C	-2.8931179	2.8823930	0.3907869
H	-3.0884606	2.7695144	1.4505886
C	-3.6286573	3.6361717	-0.4269575
H	-4.4830041	4.1845411	-0.0423064
H	-3.4092073	3.7302624	-1.4841100
O	-1.8037571	2.1582242	0.0021155
H	-1.6666132	2.2889689	-0.9520797
C	-6.9193936	1.9029849	-0.1486841
H	-7.2307341	0.8510386	-0.2497150
H	-6.6636927	2.4149710	-1.0900890
O	-6.8614153	2.4656280	0.9375066
