11
0 (energy)
C	-2.2729485	2.8010350	-0.0938656
H	-1.2301612	2.9098712	-0.3674152
C	-2.7630465	1.7580085	0.5768102
H	-2.1065408	0.9497236	0.8838113
H	-3.8119562	1.6760606	0.8369172
O	-3.0165486	3.8624189	-0.5213185
H	-3.9416828	3.7225176	-0.2549627
C	-7.0325230	1.7824310	0.8897336
H	-6.9787559	2.1488757	1.9273070
H	-6.6622614	0.7574245	0.7284142
O	-7.4743524	2.4686267	-0.0233169
