11
0 (energy)
C	-2.7828605	2.7752872	-0.4782117
H	-2.6503283	2.5660022	-1.5330648
C	-3.9697406	2.9472790	0.1045756
H	-4.8804271	2.8806077	-0.4826030
H	-4.0718385	3.1557522	1.1632057
O	-1.5859725	2.8399742	0.1740671
H	-1.7526856	3.0288802	1.1137012
C	-8.7998100	1.9540953	0.6056146
H	-9.4439846	2.8306811	0.4313512
H	-9.3210180	1.0382574	0.9270784
O	-7.5855025	1.9949787	0.4522367
