11
0 (energy)
C	-3.1109758	3.0848149	-0.1133194
H	-4.0932247	3.5377570	-0.0492055
C	-2.3159261	3.1759223	-1.1798567
H	-2.6395937	3.7297992	-2.0556612
H	-1.3371654	2.7118816	-1.2155835
O	-2.7934004	2.4127542	1.0310902
H	-1.9074176	2.0241838	0.9289214
C	-7.0777304	2.3527777	0.9908188
H	-6.2215032	2.3331612	1.6837989
H	-8.0201289	2.7385572	1.4113127
O	-6.9879570	1.9712486	-0.1694033
