11
0 (energy)
C	-2.2920405	3.0118405	-0.0259700
H	-1.2170076	3.1229960	-0.1036148
C	-3.1129106	3.9748709	0.3943289
H	-2.7151055	4.9423389	0.6847263
H	-4.1854946	3.8348837	0.4617802
O	-2.6962043	1.7667154	-0.4113374
H	-3.6637307	1.7124544	-0.3256674
C	-7.6148912	1.8442136	0.5945930
H	-6.8294000	2.4628618	0.1319816
H	-7.2571558	0.9818033	1.1794261
O	-8.8061155	2.0981974	0.4672517
