11
0 (energy)
C	-2.4528593	2.8619806	-0.4018400
H	-1.7830215	2.6048882	-1.2138135
C	-2.9509080	4.0829491	-0.2041283
H	-2.6911751	4.8935999	-0.8778922
H	-3.6195902	4.3110179	0.6177180
O	-2.7201031	1.7819954	0.3883534
H	-3.3223559	2.0581511	1.1006881
C	-6.6802546	1.7468835	0.5467674
H	-6.1634602	1.0397558	1.2150676
H	-7.7073492	1.4674296	0.2626229
O	-6.1485461	2.7748880	0.1464778
