11
0 (energy)
C	-2.4987962	2.9557131	0.3539160
H	-2.0061101	3.4475232	1.1842552
C	-2.6225370	1.6331989	0.2375070
H	-2.2170498	0.9780705	1.0023342
H	-3.1211051	1.1687916	-0.6053088
O	-2.9739333	3.8582539	-0.5526477
H	-3.4063043	3.3742497	-1.2773451
C	-5.9228377	1.8773673	0.7133407
H	-5.7423790	2.0830286	1.7805189
H	-5.9149139	0.8135920	0.4268530
O	-6.1191326	2.7714944	-0.1001357
