11
0 (energy)
C	-2.3396820	3.0598921	-0.1798320
H	-1.3124615	3.3290525	-0.3953567
C	-3.3966900	3.7568020	-0.5981110
H	-3.2575934	4.6541425	-1.1930949
H	-4.4140036	3.4632099	-0.3668979
O	-2.4127840	1.9224127	0.5704943
H	-3.3491929	1.7196072	0.7390155
C	-7.7163993	1.7331344	0.1129348
H	-8.7561232	1.9861203	-0.1491787
H	-7.3562577	0.7605489	-0.2587256
O	-7.0082740	2.4829337	0.7733124
