11
0 (energy)
C	-2.8499996	2.4451183	-0.1823902
H	-3.3126445	1.6164768	-0.7052602
C	-1.9451476	2.3035873	0.7866910
H	-1.6287485	1.3125187	1.0969305
H	-1.4988676	3.1518305	1.2925570
O	-3.3094663	3.6457540	-0.6401645
H	-2.8689996	4.3577011	-0.1446734
C	-7.1135787	2.5799396	0.5009852
H	-7.1365730	3.2372938	1.3847771
H	-8.0172385	2.5994727	-0.1289143
O	-6.1480296	1.8746321	0.2364194
