11
0 (energy)
C	-3.1021921	2.8777197	0.2211490
H	-4.1155531	3.0037578	0.5834943
C	-2.0801928	2.4892960	0.9843993
H	-2.2357531	2.2776480	2.0377653
H	-1.0760285	2.3716574	0.5940175
O	-3.0062520	3.1658563	-1.1092516
H	-2.0833799	3.0396731	-1.3899219
C	-7.4915176	1.5491858	0.3307971
H	-6.8026745	0.7201306	0.1029944
H	-8.5607420	1.2848286	0.3559057
O	-7.0951830	2.6885052	0.5420053
