11
0 (energy)
C	-2.5739015	3.1341173	0.2999437
H	-2.0674994	3.8931622	0.8843133
C	-3.4791586	2.2907581	0.7970970
H	-3.7501882	2.3384657	1.8472592
H	-3.9700122	1.5407608	0.1878766
O	-2.1687880	3.1516448	-1.0030409
H	-2.6471939	2.4569694	-1.4877520
C	-7.8985248	1.8162907	0.5350015
H	-8.8548084	2.3547435	0.6315502
H	-7.9614716	0.7191272	0.6126285
O	-6.8364984	2.3984419	0.3535111
