11
0 (energy)
C	-2.5936156	2.5818566	0.3083651
H	-2.2205667	2.1667792	1.2371413
C	-3.0748944	1.8486924	-0.6959991
H	-3.1104909	0.7668152	-0.6132433
H	-3.4416391	2.2919692	-1.6144689
O	-2.5083034	3.9437708	0.2981410
H	-2.8526130	4.2714580	-0.5506600
C	-6.1428379	2.8808732	0.5404815
H	-6.3630957	3.7512847	-0.0979554
H	-6.0899528	3.0862699	1.6215787
O	-5.9684388	1.7598949	0.0792532
