11
0 (energy)
C	-3.1378850	3.0303501	-0.1141041
H	-4.0378206	3.6336184	-0.1303345
C	-2.9783855	1.9098654	-0.8190724
H	-3.7778513	1.5498058	-1.4592171
H	-2.0658556	1.3262830	-0.7829667
O	-2.1936133	3.5612626	0.7157609
H	-1.4067338	2.9894830	0.6990391
C	-7.2427804	1.5821885	0.1481155
H	-8.0401871	1.0719825	-0.4154125
H	-6.2642950	1.0759099	0.1501322
O	-7.4314447	2.6413474	0.7332026
