11
0 (energy)
C	-3.0247308	2.5587173	-0.2004805
H	-3.6782063	1.7108372	-0.3682576
C	-2.9148677	3.5923275	-1.0356372
H	-3.5006531	3.6199640	-1.9492375
H	-2.2520787	4.4275566	-0.8415090
O	-2.3322234	2.4340125	0.9687394
H	-1.7610844	3.2139683	1.0776433
C	-6.4360867	1.8253486	0.7966600
H	-6.5443975	0.7457267	0.6058287
H	-6.1724409	2.1006976	1.8303087
O	-6.5979373	2.6633978	-0.0815296
