11
0 (energy)
C	-2.9709426	2.6417032	-0.3497273
H	-3.3465890	2.1963508	-1.2633087
C	-3.6227547	2.6201483	0.8132787
H	-4.5915108	2.1356862	0.8866394
H	-3.2219138	3.0745255	1.7118612
O	-1.7518455	3.2243871	-0.5407109
H	-1.4547831	3.6094194	0.3018418
C	-7.8029140	1.7174724	-0.0250277
H	-7.0150222	1.5404476	-0.7744410
H	-8.7773856	1.2512817	-0.2414235
O	-7.6085162	2.3876862	0.9813330
