11
0 (energy)
C	-2.9648411	2.4703912	-0.0198292
H	-3.5078981	1.5830140	0.2830417
C	-2.7892535	2.8404482	-1.2887395
H	-3.2015486	2.2402364	-2.0939304
H	-2.2407952	3.7343377	-1.5621217
O	-2.4861375	3.1571419	1.0578578
H	-2.0078176	3.9423346	0.7399374
C	-6.7716020	2.7096824	0.0189763
H	-6.4234836	2.8148276	-1.0209705
H	-7.4097841	3.5270533	0.3909767
O	-6.4693719	1.7484432	0.7149756
