11
0 (energy)
C	-2.9196915	3.2521389	-0.1534488
H	-3.6105554	4.0682170	-0.3289583
C	-1.6332026	3.2758657	-0.5031486
H	-1.2179376	4.1496678	-0.9956916
H	-0.9649774	2.4436918	-0.3146164
O	-3.5314913	2.2025200	0.4679965
H	-2.8765586	1.4963064	0.6048049
C	-7.0892444	2.7130646	0.5285088
H	-7.9553013	3.0631894	-0.0555198
H	-6.8114148	3.3420920	1.3892591
O	-6.4763141	1.6928077	0.2401843
