11
0 (energy)
C	-2.7895195	2.5940986	-0.4000055
H	-2.7477662	2.1263776	-1.3765165
C	-3.6230994	2.2198769	0.5710811
H	-4.3163398	1.4002861	0.4090242
H	-3.6425092	2.7068331	1.5391099
O	-1.8846073	3.6097812	-0.2917659
H	-1.9572248	3.9987865	0.5969369
C	-7.9535179	2.5139882	0.7326362
H	-7.6648587	2.9662561	1.6948530
H	-8.8679848	2.9207609	0.2721559
O	-7.3014474	1.6188856	0.2098226
