11
0 (energy)
C	-2.4474760	2.8571777	0.3326309
H	-1.7691422	2.5885874	1.1337567
C	-2.9330567	4.0850140	0.1467930
H	-2.6534231	4.8897205	0.8197167
H	-3.6107466	4.3246062	-0.6643264
O	-2.7396802	1.7837105	-0.4576083
H	-3.3487788	2.0701229	-1.1600026
C	-6.9643286	2.5611984	0.6327530
H	-7.2380957	2.3942254	1.6867468
H	-7.5476396	3.3341954	0.1074153
O	-6.0712705	1.9297428	0.0818900
