11
0 (energy)
C	-3.0473256	3.1496615	-0.1678068
H	-3.9660475	3.6099465	-0.5115622
C	-1.9351722	3.8274063	0.1179964
H	-1.9121367	4.9075368	0.0114076
H	-1.0299389	3.3396044	0.4603186
O	-3.1734741	1.7947512	-0.0653483
H	-2.3286788	1.4254612	0.2450332
C	-6.6792643	1.6132363	0.5005402
H	-6.9510555	1.0799572	1.4254586
H	-6.0687719	1.0405792	-0.2157830
O	-7.0321786	2.7655997	0.2831721
