11
0 (energy)
C	-2.5944838	2.9035417	0.4038972
H	-2.2631619	3.2767809	1.3656655
C	-2.8923887	1.6265926	0.1619051
H	-2.8094912	0.8878327	0.9530660
H	-3.2217065	1.2817339	-0.8113395
O	-2.6674690	3.9023034	-0.5231094
H	-2.9676040	3.5230457	-1.3671909
C	-6.7062126	1.9781251	0.0214737
H	-6.0376187	1.1215374	0.2030525
H	-6.5418682	2.5162763	-0.9257011
O	-7.5741247	2.3099409	0.8191990
