11
0 (energy)
C	-3.0093062	3.1977433	0.0730013
H	-3.5630495	4.1283008	0.1118727
C	-3.2100140	2.1752083	0.9048938
H	-3.9661169	2.2437627	1.6808980
H	-2.6402240	1.2554303	0.8422006
O	-2.0851059	3.2061530	-0.9309788
H	-1.6139687	2.3550281	-0.9283084
C	-7.8403923	1.8816258	0.3450321
H	-8.0523712	1.1820891	-0.4792522
H	-8.6962469	2.1218531	0.9958467
O	-6.7277351	2.3602241	0.5257987
