19
-0.00443361 (energy)
C	0.0219528	-0.0767556	0.0269875
H	-0.2613881	0.9139158	-0.3213361
C	0.9980580	-0.7833752	-0.6737013
H	1.4629380	-0.3445769	-1.5522635
C	1.3748237	-2.0499069	-0.2431583
H	2.1357793	-2.6063123	-0.7830411
C	0.7743657	-2.6065271	0.8873714
H	1.0840911	-3.5969018	1.2101678
C	-0.2107467	-1.9122084	1.6014797
N	-0.7661472	-2.4983445	2.7275070
H	-1.4939914	-2.0343671	3.2499873
H	-0.4930416	-3.4299929	3.0058303
C	-1.6363249	0.1697972	1.8915565
H	-1.8050719	1.1412704	1.4148099
H	-1.3232685	0.3591270	2.9233487
H	-2.5905204	-0.3670188	1.8911095
C	-0.5888689	-0.6292364	1.1665560
Br	-3.1265878	-2.2556154	-1.9450872
H	-1.9503759	-2.0166456	-1.1299003
