19
-0.00309531 (energy)
C	-0.3548563	-0.7450449	-1.1776200
H	-0.6624082	-1.7755726	-1.0149366
C	0.0024176	0.0328350	-0.0774765
H	-0.0287863	-0.3909606	0.9224998
C	0.3998277	1.3512614	-0.2651968
H	0.6811164	1.9634664	0.5869742
C	0.4390382	1.8883847	-1.5529991
H	0.7549873	2.9203843	-1.6799727
C	0.0799913	1.1223262	-2.6695631
N	0.1509892	1.6935268	-3.9299805
H	-0.1227877	1.1759651	-4.7516823
H	0.4193599	2.6611795	-4.0378907
C	-0.7120196	-1.0891902	-3.6355234
H	-0.9949142	-2.0937718	-3.3033949
H	0.1252012	-1.1962905	-4.3326864
H	-1.5727205	-0.6615539	-4.1599103
C	-0.3189756	-0.2127698	-2.4785237
Br	-1.9579278	-4.9332698	-3.2588239
H	-0.5321046	-5.2007577	-3.2830997
