19
-0.00277182 (energy)
C	1.9966035	-1.1087016	0.9696650
H	3.0278790	-1.4292239	0.8401362
C	1.3572853	-0.4550611	-0.0825155
H	1.8876470	-0.2726237	-1.0130862
C	0.0391705	-0.0394188	0.0632134
H	-0.4663962	0.4693533	-0.7526708
C	-0.6363374	-0.2787446	1.2610805
H	-1.6674366	0.0513347	1.3551622
C	-0.0083324	-0.9309360	2.3300668
N	-0.7246249	-1.1614363	3.4935776
H	-0.2941393	-1.6076941	4.2895386
H	-1.6736264	-0.8278439	3.5837528
C	2.0537298	-2.0632789	3.2875972
H	3.0792627	-2.3167195	2.9985069
H	1.5426535	-2.9974703	3.5416300
H	2.1104494	-1.4240507	4.1746320
C	1.3246343	-1.3538782	2.1801609
Br	4.2532803	0.8555181	-2.5437868
H	4.7157731	0.7075893	-1.1765530
