19
-0.00261399 (energy)
C	-0.6035762	-0.9330597	2.2183306
H	-0.5647800	-1.7741465	2.9068865
C	0.0039855	-1.0561892	0.9698253
H	0.5059813	-1.9803873	0.6970852
C	-0.0364084	0.0068739	0.0755730
H	0.4335086	-0.0818458	-0.8998349
C	-0.6845933	1.1905422	0.4323068
H	-0.7079430	2.0097506	-0.2813610
C	-1.2973165	1.3330553	1.6840000
N	-1.9434397	2.5208069	1.9868756
H	-2.3742119	2.6633794	2.8880561
H	-1.9377352	3.2874631	1.3294374
C	-1.9007983	0.3427242	3.9436946
H	-1.7719754	-0.5845938	4.5120333
H	-2.9762577	0.5214156	3.8441862
H	-1.4476737	1.1513063	4.5263897
C	-1.2584512	0.2553336	2.5868609
Br	2.8522254	-3.7075929	1.4117963
H	3.5851491	-2.4579428	1.3323709
