19
-0.00403924 (energy)
C	-0.9406087	1.1266689	2.0004418
H	-1.0587043	1.1399127	3.0816076
C	-0.2048384	0.0971108	1.4158826
H	0.2400871	-0.6752202	2.0372321
C	-0.0442253	0.0619711	0.0358860
H	0.5265832	-0.7378796	-0.4272881
C	-0.6201275	1.0567405	-0.7561015
H	-0.4857939	1.0107845	-1.8335113
C	-1.3596251	2.1007103	-0.1853601
N	-1.9268215	3.0560836	-1.0133171
H	-2.4453722	3.8330374	-0.6319171
H	-1.7750733	3.0221974	-2.0112366
C	-2.3101488	3.2238838	1.8849420
H	-2.3329347	3.0926503	2.9720398
H	-3.3460342	3.2199788	1.5308635
H	-1.8571203	4.1994618	1.6808017
C	-1.5240803	2.1333570	1.2110785
Br	3.3528472	2.5581477	1.1535884
H	2.4708699	1.4088965	1.0732861
