19
-0.0024692 (energy)
C	2.0688308	1.9482967	-0.3235383
H	2.8637378	2.6824810	-0.4337090
C	2.2188108	0.9290695	0.6154715
H	3.1180486	0.8761286	1.2230057
C	1.2133366	-0.0174470	0.7721559
H	1.3221712	-0.8139628	1.5027935
C	0.0601498	0.0579269	-0.0107570
H	-0.7161935	-0.6897255	0.1280820
C	-0.1057877	1.0731552	-0.9616785
N	-1.2751663	1.1171175	-1.7036919
H	-1.4152612	1.8215387	-2.4123399
H	-1.9803803	0.4033832	-1.5884712
C	0.7921815	3.1495341	-2.1164370
H	1.6739645	3.7989972	-2.1030453
H	-0.0789847	3.7720875	-1.8885293
H	0.6976193	2.7440790	-3.1290202
C	0.9111337	2.0322623	-1.1170378
Br	3.2318397	-1.3273405	3.7554599
H	2.0436752	-1.2530065	4.5848275
