19
-0.00244452 (energy)
C	-0.0090823	-0.0416344	-0.0727033
H	0.1081418	0.4957333	0.8656654
C	0.4703443	0.5390169	-1.2457556
H	0.9516871	1.5125956	-1.2144089
C	0.3314623	-0.1328593	-2.4543564
H	0.7037481	0.3124173	-3.3726405
C	-0.2865530	-1.3840544	-2.4866312
H	-0.3835215	-1.8951614	-3.4407465
C	-0.7774065	-1.9808638	-1.3181464
N	-1.3681577	-3.2317608	-1.3970926
H	-1.7522501	-3.6781559	-0.5778110
H	-1.4792051	-3.6887342	-2.2908840
C	-1.1343215	-1.8894177	1.1949024
H	-0.9401934	-1.2252376	2.0438442
H	-0.6322106	-2.8405206	1.3991896
H	-2.2160835	-2.0501046	1.1436077
C	-0.6333902	-1.3012722	-0.0952128
Br	2.0527840	1.1895515	3.0391144
H	2.7991314	-0.0498597	2.9298619
