19
-0.00193512 (energy)
C	-0.3685925	-1.5235499	-1.2209353
H	-1.3990489	-1.2690510	-1.4584880
C	0.1937276	-2.6619684	-1.7961368
H	-0.3945708	-3.2793866	-2.4693595
C	1.5094967	-3.0027266	-1.5062099
H	1.9552990	-3.8875939	-1.9516130
C	2.2596878	-2.2038005	-0.6416847
H	3.2876688	-2.4850048	-0.4292030
C	1.7096279	-1.0583483	-0.0518976
N	2.4983033	-0.2869182	0.7864636
H	2.1249860	0.5307215	1.2448490
H	3.4440453	-0.5691801	1.0007522
C	-0.2685739	0.5062906	0.2477493
H	-1.3041365	0.6198068	-0.0902554
H	0.2754815	1.4088809	-0.0485274
H	-0.2854031	0.4308485	1.3398509
C	0.3789356	-0.7128558	-0.3486216
Br	6.0944513	0.8076182	0.7645894
H	7.0014307	1.6304454	1.5426992
