19
-0.00157142 (energy)
C	1.4487385	1.0576142	-0.8546092
H	1.3486115	1.9534102	-0.2458683
C	2.4239059	1.0253796	-1.8501326
H	3.0689483	1.8851825	-2.0088411
C	2.5684109	-0.1109027	-2.6371541
H	3.3269679	-0.1442594	-3.4140661
C	1.7371727	-1.2123034	-2.4263628
H	1.8671009	-2.0927120	-3.0500362
C	0.7495810	-1.1959972	-1.4329483
N	-0.0405079	-2.3194050	-1.2494344
H	-0.7755539	-2.3310159	-0.5583553
H	0.0676934	-3.1237381	-1.8505665
C	-0.4307401	0.0325813	0.4508251
H	-0.4013236	0.9976462	0.9678429
H	-0.2577568	-0.7474738	1.1991808
H	-1.4334236	-0.0829091	0.0266219
C	0.6064799	-0.0466290	-0.6350593
Br	4.9770603	4.2806023	-0.3042041
H	4.7063938	2.9700940	0.2565263
