19
0.00618357 (energy)
C	0.0230763	1.2223857	-2.5856989
H	0.0285071	1.7019450	-3.5619339
C	-0.1162445	2.0143369	-1.4470767
H	-0.2169980	3.0919965	-1.5420897
C	-0.1272246	1.4198867	-0.1909197
H	-0.2368075	2.0301321	0.7011038
C	0.0010477	0.0346126	-0.0767470
H	-0.0124749	-0.4121265	0.9138137
C	0.1455752	-0.7762087	-1.2099532
N	0.2525085	-2.1481702	-1.0479364
H	0.3809391	-2.7571852	-1.8420549
H	0.2664582	-2.5537640	-0.1231022
C	0.3001943	-0.9881940	-3.7362786
H	0.2871078	-0.3568792	-4.6311492
H	-0.5249506	-1.7021686	-3.8247189
H	1.2524869	-1.5283246	-3.7286606
C	0.1533530	-0.1736723	-2.4807960
Br	2.9956207	-0.0000131	-0.0024127
H	2.9865274	1.0371134	-1.0170047
