19
-0.00388388 (energy)
C	2.0929593	-1.6116140	-1.0967314
H	2.8859847	-2.2178169	-1.5287847
C	1.4569949	-0.6643906	-1.8975900
H	1.7547799	-0.5400220	-2.9350800
C	0.4402038	0.1185466	-1.3641415
H	-0.0611921	0.8579123	-1.9822469
C	0.0619011	-0.0480073	-0.0308672
H	-0.7370462	0.5716151	0.3675303
C	0.6925002	-0.9924685	0.7893849
N	0.2712227	-1.1336959	2.1018417
H	0.7202855	-1.7883166	2.7246034
H	-0.4532260	-0.5357932	2.4729287
C	2.4323149	-2.8210036	1.0734080
H	3.2007982	-3.3421008	0.4925344
H	1.7240376	-3.5742170	1.4332109
H	2.9291302	-2.3483424	1.9268871
C	1.7192112	-1.7863726	0.2474138
Br	-1.1789422	-3.8525365	-2.5788062
H	-0.4343641	-3.1579075	-1.5452663
