19
-0.00353304 (energy)
C	1.0021704	-1.7113891	-0.1206211
H	0.5066966	-2.1039943	-1.0057246
C	2.0039061	-2.4700263	0.4827467
H	2.2789280	-3.4364905	0.0694201
C	2.6498612	-1.9845892	1.6134610
H	3.4325217	-2.5692475	2.0885727
C	2.2923132	-0.7413467	2.1378471
H	2.8106092	-0.3774310	3.0209687
C	1.2855263	0.0327862	1.5465992
N	0.9768211	1.2682385	2.0927872
H	0.2412407	1.8393697	1.7045239
H	1.4436727	1.5879450	2.9293615
C	-0.4506098	0.3257712	-0.2840172
H	-0.8452513	-0.2070021	-1.1557590
H	-0.0617800	1.2874568	-0.6338994
H	-1.2858061	0.4966095	0.4029485
C	0.6347761	-0.4582216	0.4004807
Br	-0.1551961	-3.4775906	-3.5844766
H	1.0054211	-3.0417815	-4.3382333
