19
-0.00314538 (energy)
C	-2.2160163	-0.2597332	1.7895274
H	-3.0677174	-0.3652228	2.4577478
C	-2.3019628	-0.7843069	0.5009262
H	-3.2082676	-1.2888291	0.1775102
C	-1.2248477	-0.6579755	-0.3681454
H	-1.2846414	-1.0628895	-1.3744174
C	-0.0643583	-0.0070702	0.0538262
H	0.7663031	0.0841831	-0.6408994
C	0.0407763	0.5229030	1.3463240
N	1.2063373	1.1754906	1.7145083
H	1.3222421	1.5476745	2.6451334
H	1.9842274	1.2326986	1.0729216
C	-1.0037220	0.9482483	3.6221250
H	-1.9372410	0.7590132	4.1627315
H	-0.8506031	2.0319644	3.5984748
H	-0.1942020	0.4763778	4.1884078
C	-1.0511790	0.3971614	2.2238061
Br	4.4671793	-0.1659159	0.1430321
H	5.5032407	0.7674487	0.5436793
