11
0.00113755 (energy)
C	0.0402707	-0.0111983	0.0728062
H	-0.4794969	0.1333367	-0.8668912
C	-0.4952251	0.2407527	1.2676582
H	-1.5117707	0.6145177	1.3418784
H	0.0492373	0.0864940	2.1919675
O	1.3063521	-0.4815920	-0.1220292
H	1.7334113	-0.5958267	0.7445514
C	3.0168170	-2.7660679	3.3808816
H	3.1453055	-2.7404961	2.2870041
H	3.5434937	-1.9758680	3.9394081
O	2.3341489	-3.6160781	3.9387218
