11
0.002027 (energy)
C	0.0654901	-0.0035338	-0.0524065
H	-0.7797798	0.0420764	0.6239947
C	0.5565242	-1.1358391	-0.5570615
H	0.1072578	-2.0891186	-0.2963095
H	1.4041560	-1.1508859	-1.2322479
O	0.5605677	1.2395798	-0.3202868
H	1.3145748	1.1505788	-0.9285163
C	1.7418814	-0.3711822	2.5657697
H	1.0755746	-1.2482115	2.5899821
H	1.6051390	0.3517669	3.3857709
O	2.5786498	-0.2106206	1.6861234
