11
0.00187646 (energy)
C	0.0382681	0.0274387	-0.0695021
H	-0.4556522	-0.3267084	0.8275500
C	0.2954259	1.3112168	-0.3218714
H	0.0065877	2.0759653	0.3924857
H	0.7915487	1.6364326	-1.2288883
O	0.3617458	-1.0030831	-0.9035165
H	0.8010153	-0.6400743	-1.6919693
C	3.6005925	0.8157232	-0.2949173
H	3.3204171	-0.2346966	-0.1164480
H	4.1451295	1.0090846	-1.2329187
O	3.3251380	1.7087733	0.4964899
