11
0.000967718 (energy)
C	-0.0645030	-0.0536829	0.0023226
H	0.7680264	0.6391925	-0.0276545
C	-0.0992948	-1.1449940	0.7676565
H	0.7399696	-1.3856222	1.4128752
H	-0.9466044	-1.8206881	0.7769569
O	-1.0675340	0.3314702	-0.8389734
H	-1.7905474	-0.3166916	-0.7795686
C	-2.9903498	-3.7784057	-1.7619377
H	-1.9718551	-3.9111416	-2.1604112
H	-3.0572818	-3.2557785	-0.7943961
O	-3.9818699	-4.1846572	-2.3548850
