11
0.000672322 (energy)
C	0.0146903	-0.0513820	-0.0647454
H	-0.1749150	0.6117972	0.7709120
C	-0.2434612	-1.3594747	-0.0521770
H	-0.6698078	-1.8227684	0.8322218
H	-0.0431019	-1.9988933	-0.9039884
O	0.5486667	0.6199091	-1.1260796
H	0.7017228	-0.0119823	-1.8497357
C	2.5372964	-1.6560882	2.1571787
H	2.0113523	-2.5955345	1.9236092
H	2.6270536	-1.4159324	3.2286379
O	2.9918027	-0.9274315	1.2841253
