11
0.00130031 (energy)
C	-0.0242824	-0.0801731	0.0055241
H	0.2891268	0.9546076	-0.0657748
C	0.5368342	-1.0781069	-0.6779836
H	1.3603771	-0.8788888	-1.3567051
H	0.2019214	-2.1047630	-0.5863681
O	-1.0612612	-0.2305829	0.8797352
H	-1.3083686	-1.1709607	0.9116487
C	-3.3366598	-3.4762265	-0.6307852
H	-2.4494705	-3.7947477	-0.0605477
H	-3.3908440	-2.4006325	-0.8629865
O	-4.2046425	-4.2650701	-0.9830219
