11
0.000839656 (energy)
C	-0.0322180	-0.0588607	0.0504510
H	0.3836145	0.7008437	-0.6007115
C	-0.4924118	0.1819916	1.2785057
H	-0.4646593	1.1888174	1.6836048
H	-0.9033346	-0.5987678	1.9079022
O	-0.0247170	-1.2871856	-0.5439852
H	-0.4051833	-1.9350534	0.0739984
C	2.7067959	-4.0408019	0.6182443
H	1.6074768	-4.0677152	0.6853600
H	3.1989371	-5.0185451	0.4934600
O	3.3394777	-2.9939770	0.6783296
