11
0.00154551 (energy)
C	0.0196044	0.0171525	0.0798081
H	-0.2334268	-0.2042315	-0.9502620
C	-0.8372997	0.5266596	0.9652596
H	-1.8592180	0.7457039	0.6715312
H	-0.5556988	0.7380929	1.9902374
O	1.3206025	-0.2905801	0.3534828
H	1.5024541	-0.0764431	1.2848615
C	3.2725549	-2.7938353	-1.3888063
H	3.8696806	-3.6907884	-1.6182562
H	3.7724921	-1.8300387	-1.5756616
O	2.1294341	-2.8634683	-0.9550262
