11
0.000687533 (energy)
C	0.0028605	0.0727454	0.0418068
H	-0.0340599	-0.8661668	-0.4977865
C	0.6643129	0.2498283	1.1859348
H	1.2104457	-0.5748259	1.6334370
H	0.6835710	1.2015842	1.7039816
O	-0.7104472	1.0456550	-0.5960270
H	-0.6495652	1.8670832	-0.0783978
C	4.5892243	-1.3421169	-0.4703834
H	4.9633340	-2.1474115	0.1817468
H	5.2111810	-1.1171305	-1.3514662
O	3.5513428	-0.7374391	-0.2318341
