11
0.00217062 (energy)
C	-0.0213053	0.0029145	-0.0811509
H	0.2536786	-0.0347029	0.9662501
C	-1.2010455	-0.3964018	-0.5572455
H	-1.9565541	-0.7887035	0.1164605
H	-1.4484866	-0.3469929	-1.6112448
O	0.9889220	0.5085862	-0.8466116
H	0.6990726	0.5237238	-1.7751314
C	1.8621934	-3.7702116	-0.0476106
H	2.9537082	-3.8567664	0.0741886
H	1.3109942	-4.7235637	-0.0800912
O	1.2991799	-2.6866558	-0.1406777
