11
0.00150766 (energy)
C	-0.0566016	-0.0538776	-0.0306813
H	0.6739454	0.6415117	0.3653172
C	-1.1712448	0.3150010	-0.6626667
H	-1.3931302	1.3677893	-0.8075029
H	-1.8846754	-0.4037795	-1.0486124
O	0.3081497	-1.3486454	0.1989400
H	-0.3736784	-1.9351783	-0.1718439
C	3.2941924	-1.6693780	-1.8031993
H	2.7078892	-2.5886961	-1.9607873
H	4.0946668	-1.4850477	-2.5373785
O	3.0710410	-0.9035234	-0.8740012
