11
0.00221201 (energy)
C	-1.3842506	0.2471932	0.1519967
H	-2.0919538	0.2499110	-0.6685085
C	-0.0790322	0.0143322	0.0102671
H	0.3351918	-0.1886736	-0.9724744
H	0.6058312	0.0180228	0.8502261
O	-1.9964618	0.5111888	1.3426674
H	-1.3261159	0.4986421	2.0475574
C	-0.3421491	3.7236290	1.4232542
H	0.1805417	3.0903400	2.1577410
H	0.2530523	4.5472552	0.9976593
O	-1.5069702	3.5253126	1.1013827
