11
0.000897148 (energy)
C	-0.3514272	0.5829834	-1.2397526
H	-1.0382425	0.1330231	-1.9467889
C	-0.0191670	0.0346080	-0.0706529
H	-0.4431971	-0.9203721	0.2239407
H	0.6714154	0.5083005	0.6173109
O	0.1274651	1.7764008	-1.6964912
H	0.7371880	2.1424020	-1.0326599
C	4.0825552	1.6465920	0.1388946
H	3.2261549	2.1294720	0.6360231
H	4.6138372	0.8894269	0.7373898
O	4.4213331	1.9323790	-1.0027245
