11
0.00120583 (energy)
C	-0.2304074	-0.3224031	1.3576913
H	-0.9051641	-1.1032467	1.6879439
C	-0.0121697	-0.0173173	0.0781596
H	-0.5243929	-0.5636318	-0.7078058
H	0.6692953	0.7698263	-0.2228272
O	0.3643119	0.3054916	2.4132719
H	0.9586293	0.9955174	2.0711576
C	3.2447431	1.7182456	4.0401866
H	3.5138900	0.7281904	3.6388363
H	3.9828221	2.5175562	3.8666997
O	2.1952358	1.9170143	4.6391559
