11
0.000928142 (energy)
C	-1.0913295	0.5150591	0.7376118
H	-1.9886330	0.9214450	0.2861952
C	-0.0617078	0.0291538	0.0435789
H	-0.0892461	0.0243062	-1.0416824
H	0.8239904	-0.3714357	0.5227964
O	-1.1495373	0.5639208	2.1001159
H	-0.3269226	0.1904859	2.4610070
C	1.1781625	3.0811559	4.4499297
H	1.0086273	1.9925847	4.4485312
H	2.1728919	3.4071976	4.1064675
O	0.3183354	3.8757099	4.8092626
