11
-0.00389985 (energy)
C	-1.0729935	-0.5900946	-0.6453248
H	-1.2558881	-0.1973153	-1.6384784
C	-1.8013217	-1.5522201	-0.0780866
H	-2.6362851	-1.9922602	-0.6145328
H	-1.5947553	-1.9257234	0.9181103
O	-0.0075083	0.0226678	-0.0524870
H	0.1191623	-0.3597537	0.8330068
C	3.2192918	-1.7248369	0.8599383
H	3.0968967	-0.6545089	0.6293981
H	4.1574250	-2.1822499	0.5071843
O	2.3693187	-2.3634956	1.4677207
