11
0.00159952 (energy)
C	-0.7154034	-0.3970505	-1.1164764
H	-0.9842761	0.4190281	-1.7766304
C	-1.0337594	-1.6725167	-1.3395050
H	-1.5961626	-1.9471846	-2.2265417
H	-0.7509679	-2.4686313	-0.6606727
O	-0.0129864	0.0452244	-0.0333346
H	0.2061040	-0.7177442	0.5290436
C	2.1150255	0.4901082	3.0879057
H	1.0614135	0.2104847	3.2474165
H	2.8565283	-0.2778804	3.3601609
O	2.4402533	1.5816950	2.6380123
