11
0.0026716 (energy)
C	-0.1755278	0.3515311	-1.3272478
H	0.3616627	1.2467257	-1.6173048
C	-0.9401982	-0.3606266	-2.1555093
H	-1.0547758	-0.0546580	-3.1908010
H	-1.4663292	-1.2529865	-1.8369772
O	0.0295762	0.0478293	-0.0127553
H	-0.4693964	-0.7590848	0.2024353
C	2.2015414	2.8489252	0.5417927
H	1.3272197	3.4690045	0.7963403
H	2.9499874	3.3280009	-0.1094146
O	2.3327172	1.7036261	0.9550985
