11
0.00144089 (energy)
C	-1.1320755	0.6377634	-0.4771096
H	-1.9688326	0.6164308	0.2109767
C	-1.1676971	1.2186869	-1.6767618
H	-2.0736239	1.7099230	-2.0181669
H	-0.3141252	1.2242971	-2.3445689
O	-0.0428910	-0.0025994	0.0384538
H	0.6807115	0.0412545	-0.6102890
C	4.2538101	0.9118325	-0.0069570
H	3.6727192	0.2339179	-0.6523223
H	5.2399481	1.2098636	-0.3974249
O	3.8317716	1.3076747	1.0723629
