11
0.00304253 (energy)
C	-1.1213756	-0.6211620	0.5221545
H	-0.9317727	-1.6175399	0.9034181
C	-2.3159351	-0.0291647	0.5439103
H	-3.1737695	-0.5470934	0.9615750
H	-2.4759708	0.9696279	0.1548285
O	0.0128336	-0.0527160	0.0195298
H	-0.2036790	0.8366403	-0.3099526
C	3.4474487	0.0663416	-0.7025185
H	4.4577841	-0.1203540	-1.1001344
H	2.9143922	0.9235195	-1.1439399
O	2.9501183	-0.6322804	0.1717404
