11
0.00120341 (energy)
C	1.1397263	-0.1568793	-0.7696646
H	1.6063417	0.7782419	-1.0558435
C	1.6033469	-1.3582265	-1.1156809
H	2.5008099	-1.4429706	-1.7206209
H	1.1150362	-2.2776929	-0.8144882
O	0.0227696	0.0511477	-0.0138038
H	-0.3613701	-0.8117511	0.2190767
C	-3.7259869	-2.6559300	0.2501396
H	-2.9314031	-2.2133028	0.8717899
H	-3.8049193	-3.7540276	0.2914576
O	-4.4716915	-1.9729557	-0.4406640
