11
0.00256286 (energy)
C	0.3164910	0.2305821	-1.3276431
H	0.9219651	1.1151811	-1.4856484
C	-0.0964695	-0.5750796	-2.3065605
H	0.1712187	-0.3628401	-3.3370319
H	-0.7019372	-1.4540485	-2.1183977
O	0.0321731	0.0475271	-0.0055813
H	-0.5106106	-0.7542899	0.0885797
C	3.5330705	-2.3532965	-0.7035166
H	4.4029058	-2.6899251	-1.2898604
H	3.4194794	-2.8199503	0.2879909
O	2.7450710	-1.5162910	-1.1256746
