11
0.00130464 (energy)
C	-0.2759522	-0.3996222	1.2961957
H	-0.1459352	0.3844723	2.0326544
C	-0.6647984	-1.6409268	1.5892284
H	-0.8726619	-1.9188203	2.6178886
H	-0.7864796	-2.4054017	0.8307071
O	0.0076849	0.0434934	0.0370723
H	-0.1219651	-0.6902711	-0.5883647
C	3.6470527	1.5176872	0.1685691
H	4.5891518	1.4716898	-0.4006977
H	3.3756860	2.5118965	0.5580096
O	2.9481501	0.5296781	0.3559512
