11
0.00194854 (energy)
C	-0.8718836	1.0585143	0.1879819
H	-1.4462817	1.3140288	-0.6945481
C	-0.9790443	1.6915437	1.3566122
H	-1.6740377	2.5181544	1.4673946
H	-0.3908052	1.4136288	2.2233998
O	-0.0292296	0.0114855	-0.0483611
H	0.4638955	-0.1822835	0.7675262
C	2.6527973	1.4233786	-2.7809264
H	2.4133596	1.2271708	-3.8382359
H	3.2851095	2.3058045	-2.5931453
O	2.2434354	0.7083633	-1.8748829
