11
0.000980644 (energy)
C	-1.0673021	0.6859867	-0.5534069
H	-0.9845974	1.7632630	-0.4714567
C	-2.0929871	0.0584841	-1.1297031
H	-2.9132505	0.6295680	-1.5535014
H	-2.1487905	-1.0217529	-1.1972058
O	0.0069053	0.0569640	0.0057013
H	-0.1095919	-0.9040604	-0.0904835
C	2.5713364	-2.8678693	0.0561851
H	1.6567076	-3.4746111	0.1513152
H	2.5565382	-2.1085863	-0.7419541
O	3.5397889	-3.0268006	0.7887010
