11
0.000957105 (energy)
C	0.7925677	1.1256811	0.1436987
H	0.8102651	1.5223048	1.1518933
C	1.4641781	1.6567131	-0.8784808
H	2.0763678	2.5406231	-0.7284788
H	1.4275034	1.2378507	-1.8773762
O	-0.0008294	0.0189984	0.0544377
H	0.0131632	-0.3015185	-0.8639653
C	4.0713232	0.3682581	0.2436837
H	3.7357401	-0.5938962	0.6624611
H	4.1555216	1.1965773	0.9651778
O	4.3332673	0.5077269	-0.9444546
