11
0.00128787 (energy)
C	-0.9204971	-1.0253766	0.1313725
H	-1.9510042	-0.6905131	0.1325664
C	-0.5509117	-2.3014939	0.2446763
H	-1.3011160	-3.0796225	0.3460828
H	0.4888299	-2.6072733	0.2403182
O	-0.0538936	0.0205065	-0.0002331
H	0.8553302	-0.3254524	0.0037002
C	3.5810654	-0.0643146	-2.1599772
H	3.2773667	-0.9853223	-1.6372505
H	3.4644232	0.8683093	-1.5852049
O	4.0190566	-0.0764021	-3.3035490
