11
-0.00337784 (energy)
C	0.1470415	1.0360438	-0.9060700
H	-0.2605315	0.8206280	-1.8866618
C	0.7393093	2.1855073	-0.5807100
H	0.8369393	2.9765023	-1.3178458
H	1.1381563	2.3730939	0.4093986
O	-0.0224715	-0.0140422	-0.0512146
H	0.3566390	0.2228602	0.8128128
C	-0.6141061	0.8112901	4.4616442
H	-0.4650406	1.8960241	4.3397312
H	-1.3347686	0.5156677	5.2407520
O	-0.0185225	-0.0109616	3.7768661
