29
0 (energy)
C	-2.8257565	0.4413465	-1.6602951
C	-3.8706921	1.2722497	-1.5574020
H	-2.6999178	-0.1879214	-2.5347518
H	-2.0757227	0.3712973	-0.8765820
H	-4.6184243	1.3425106	-2.3376980
C	-4.0426791	2.1300324	-0.3654476
O	-3.2892249	2.1629207	0.5926424
O	-5.1763361	2.8545458	-0.5360944
C	-5.4998925	3.7550515	0.5330494
C	-6.3047731	3.0351883	1.5988389
H	-6.1005974	4.5620588	0.1008126
H	-4.5983882	4.2151937	0.9539400
H	-7.2017058	2.5827668	1.1632337
H	-6.6069933	3.7271164	2.3900040
H	-5.7243979	2.2229884	2.0478639
C	-10.5475870	1.5467245	1.8865650
H	-10.3267624	2.4118597	2.5046200
H	-9.9651506	1.4320465	0.9798222
H	-12.0385661	0.8726128	3.1833775
C	-11.4997630	0.6825089	2.2556251
C	-11.9119315	-0.5092966	1.5497697
C	-11.4207849	-0.9737542	0.3958524
H	-12.7104958	-1.0750374	2.0276608
H	-10.6290593	-0.4866476	-0.1560578
O	-11.9045934	-2.1248486	-0.1703093
C	-11.2514317	-2.4490309	-1.3941929
H	-11.6911576	-3.3733893	-1.7797776
H	-10.1817139	-2.6189430	-1.2308244
H	-11.4042889	-1.6591353	-2.1375216
