29
0 (energy)
C	-4.4487265	4.5426845	-1.9103958
C	-4.7954836	3.9443443	-0.7638244
H	-4.8574731	5.5111416	-2.1778005
H	-3.7517259	4.0804540	-2.6047997
H	-5.4899276	4.4041406	-0.0715551
C	-4.2386746	2.6241001	-0.3990710
O	-3.4501468	1.9824560	-1.0722930
O	-4.7644744	2.2691636	0.7995835
C	-4.3260872	1.0040801	1.3153820
C	-5.1997572	-0.1128325	0.7757986
H	-4.4219779	1.0523508	2.4050658
H	-3.2672461	0.8277511	1.0932261
H	-6.2530532	0.0771628	1.0068716
H	-4.9111662	-1.0746457	1.2090126
H	-5.1202614	-0.1823932	-0.3136825
C	-9.7288696	-2.2676055	-0.9054555
H	-9.0206844	-2.9281986	-1.3966835
H	-10.6702214	-2.0948108	-1.4139479
H	-8.4534248	-1.9366377	0.7140718
C	-9.4227409	-1.7096469	0.2712690
C	-10.2487594	-0.8146599	1.0492193
C	-11.4736515	-0.3750632	0.7412174
H	-9.8055729	-0.4738206	1.9838646
H	-11.9995394	-0.6540160	-0.1611873
O	-12.1526959	0.4774085	1.5729737
C	-13.4376161	0.8274798	1.0669740
H	-13.9119512	1.5049006	1.7829209
H	-14.0698261	-0.0609963	0.9631641
H	-13.3488884	1.3482386	0.1074036
