29
0 (energy)
C	-3.2673810	-0.1970770	-1.0330658
C	-3.5941552	1.0860461	-1.2322928
H	-2.8751377	-0.8029859	-1.8427001
H	-3.3839164	-0.6691172	-0.0608203
H	-3.4784766	1.5570086	-2.2006494
C	-4.1290685	1.9122454	-0.1289395
O	-4.3167501	1.5261829	1.0123065
O	-4.3696306	3.1535242	-0.6194239
C	-4.8926158	4.0992404	0.3243849
C	-6.4052784	3.9980441	0.3840033
H	-4.6041517	5.0951964	-0.0274617
H	-4.4424995	3.9652242	1.3148517
H	-6.8393551	4.1354128	-0.6118042
H	-6.8183647	4.7549220	1.0567138
H	-6.7194251	3.0099241	0.7347996
C	-9.9790709	2.3818171	1.7078229
H	-10.0103810	3.4184520	2.0297268
H	-10.1624981	1.6287919	2.4653672
H	-9.5502354	2.9014082	-0.2683585
C	-9.7234565	2.0825417	0.4292266
C	-9.6472178	0.7631304	-0.1554582
C	-9.8173700	-0.4069910	0.4693101
H	-9.4261480	0.7435772	-1.2217102
H	-10.0396518	-0.4949771	1.5236138
O	-9.7174502	-1.5950658	-0.2075372
C	-9.9313808	-2.7241203	0.6345287
H	-9.8354377	-3.6266327	0.0240051
H	-10.9392954	-2.7041345	1.0629731
H	-9.1785362	-2.7646606	1.4291476
