29
0 (energy)
C	-2.0366327	3.2733225	1.0225903
C	-2.9899655	3.3112207	0.0831235
H	-1.1464176	3.8869638	0.9362799
H	-2.1236303	2.6311104	1.8953209
H	-2.9039630	3.9506694	-0.7867103
C	-4.2034999	2.4747257	0.2003250
O	-4.4430343	1.7065507	1.1164263
O	-4.9804550	2.7170128	-0.8845048
C	-6.2147013	1.9871063	-0.9349068
C	-5.9969316	0.6339984	-1.5857668
H	-6.9112882	2.5779240	-1.5387586
H	-6.6593639	1.8856110	0.0618698
H	-5.5540905	0.7524627	-2.5801426
H	-6.9427378	0.0935144	-1.6825735
H	-5.3037087	0.0228649	-0.9991791
C	-13.1287785	-1.3870490	-0.9226745
H	-13.8843256	-1.8925339	-1.5166846
H	-13.1813578	-0.3053013	-0.8823863
H	-12.2107522	-3.1810797	-0.3769186
C	-12.1913725	-2.0957066	-0.2833096
C	-11.1235792	-1.5784478	0.5417817
C	-10.8701844	-0.2956622	0.8223582
H	-10.4661714	-2.3330595	0.9713440
H	-11.4622225	0.5268454	0.4459551
O	-9.8174636	0.0617306	1.6246532
C	-9.7180873	1.4719213	1.8009821
H	-8.8599380	1.6739576	2.4484649
H	-10.6165328	1.8671756	2.2872180
H	-9.5505088	1.9728390	0.8413797
