29
0 (energy)
C	-2.7872720	3.3252984	-2.2417220
C	-3.8032903	2.5592568	-1.8248711
H	-2.4378901	3.2754480	-3.2673609
H	-2.2837563	4.0164841	-1.5706050
H	-4.3053495	1.8703035	-2.4928395
C	-4.2796888	2.6267785	-0.4267969
O	-3.8173993	3.3488169	0.4401864
O	-5.3042939	1.7481242	-0.2950056
C	-5.8979677	1.6837489	1.0096303
C	-5.1434647	0.6966243	1.8804079
H	-6.9295173	1.3420525	0.8751505
H	-5.9456380	2.6747177	1.4757827
H	-5.1059804	-0.2876173	1.4020892
H	-5.6233931	0.5960775	2.8579573
H	-4.1077515	1.0171877	2.0309554
C	-9.2296974	0.6301744	2.7657285
H	-8.6931774	0.8237950	3.6897803
H	-9.6006519	1.4934196	2.2255745
H	-9.0012714	-1.4372885	2.9462457
C	-9.4070512	-0.6263534	2.3421763
C	-10.0932394	-1.0499701	1.1429225
C	-10.6801276	-0.2679264	0.2305404
H	-10.1234434	-2.1271851	0.9853059
H	-10.7051753	0.8109190	0.2951326
O	-11.3008599	-0.8016366	-0.8692200
C	-11.8626186	0.1952047	-1.7179484
H	-12.3359788	-0.3078023	-2.5661152
H	-11.0833587	0.8611527	-2.1041129
H	-12.6292177	0.7703856	-1.1875424
