29
0 (energy)
C	-2.7073816	0.0144470	-0.5051693
C	-2.9728976	1.2301436	-0.0107396
H	-1.7094267	-0.4057118	-0.4416029
H	-3.4776885	-0.5858489	-0.9825954
H	-2.2059758	1.8288720	0.4649252
C	-4.3330839	1.8033018	-0.0973933
O	-5.2973714	1.2541251	-0.6026317
O	-4.3027254	3.0317016	0.4764798
C	-5.5509972	3.7390809	0.4864741
C	-5.7227888	4.5167814	-0.8048868
H	-5.5184131	4.4334351	1.3324920
H	-6.3934179	3.0596121	0.6603679
H	-4.8748693	5.1912316	-0.9632368
H	-6.6436189	5.1063860	-0.7829303
H	-5.7594829	3.8434659	-1.6671090
C	-7.5758736	-0.7184840	1.9717636
H	-6.8549917	-1.0545781	2.7110772
H	-7.1846920	-0.4308566	1.0028398
H	-9.1870470	-0.9807011	3.2735048
C	-8.8781148	-0.6734600	2.2748374
C	-9.9571032	-0.2533599	1.4100745
C	-9.8589773	0.1693541	0.1451021
H	-10.9490291	-0.2935224	1.8579779
H	-8.9220449	0.2453234	-0.3888392
O	-10.9693155	0.5410415	-0.5680777
C	-10.6538783	0.9594128	-1.8928684
H	-11.5862605	1.2375358	-2.3926521
H	-10.1905657	0.1436012	-2.4582432
H	-9.9969578	1.8358057	-1.8777432
