29
0 (energy)
C	-3.8512068	1.2317599	2.4551586
C	-4.1463061	2.2467117	1.6331689
H	-3.5549874	1.4162587	3.4821456
H	-3.8986349	0.1981013	2.1220459
H	-4.0991572	3.2767921	1.9642477
C	-4.5499300	1.9956165	0.2331100
O	-4.6478114	0.8960931	-0.2847496
O	-4.7814914	3.1963114	-0.3533447
C	-5.1922473	3.1430456	-1.7270659
C	-3.9779186	3.1074030	-2.6359546
H	-5.7718898	4.0510876	-1.9230514
H	-5.8567360	2.2911280	-1.9122163
H	-3.3256301	3.9647285	-2.4398981
H	-4.2795239	3.1262903	-3.6870118
H	-3.3815459	2.2066241	-2.4597037
C	-11.8845308	1.8591283	0.9587512
H	-12.7056565	2.5372607	1.1711268
H	-10.9382513	2.3087654	0.6813571
H	-13.0503182	0.1674462	1.3306644
C	-12.0658275	0.5364571	1.0446887
C	-11.0824502	-0.4929568	0.7961106
C	-9.8069349	-0.3192649	0.4336704
H	-11.4410408	-1.5133798	0.9237709
H	-9.3555946	0.6511922	0.2813151
O	-8.9744995	-1.3891193	0.2285101
C	-7.6593408	-0.9941559	-0.1509197
H	-7.0609879	-1.8984483	-0.2948009
H	-7.1913485	-0.3936582	0.6366344
H	-7.6772445	-0.4395896	-1.0953632
