29
0 (energy)
C	-1.6757412	2.6942520	0.4288457
C	-2.6508862	2.1636553	-0.3197778
H	-0.6396256	2.4144538	0.2717930
H	-1.8896390	3.4169672	1.2121681
H	-2.4386092	1.4434726	-1.1002758
C	-4.0634006	2.5446564	-0.1058453
O	-4.4593597	3.3380372	0.7310982
O	-4.8183857	1.8548018	-0.9965282
C	-6.2295205	2.1070040	-0.9352063
C	-6.8806385	1.1954438	0.0880467
H	-6.6360652	1.8937742	-1.9292839
H	-6.4375373	3.1619675	-0.7222020
H	-6.6649356	0.1462851	-0.1392495
H	-7.9648293	1.3383429	0.1004561
H	-6.4909952	1.3903687	1.0921929
C	-13.1489008	-1.7946039	-0.9272611
H	-13.7526310	-2.3646527	-1.6270958
H	-13.6547916	-1.0195775	-0.3633689
H	-11.4151678	-2.8585474	-1.3977523
C	-11.8450700	-2.0617005	-0.7916235
C	-10.9099645	-1.3998544	0.0893149
C	-11.1698391	-0.3966510	0.9346073
H	-9.8885848	-1.7750860	0.0431392
H	-12.1490190	0.0455247	1.0545842
O	-10.1845707	0.1445705	1.7194344
C	-10.6632246	1.1996608	2.5484581
H	-9.8229728	1.5757130	3.1392495
H	-11.4321360	0.8341879	3.2377046
H	-11.0535913	2.0240404	1.9419518
