29
0 (energy)
C	-7.2359894	2.3411849	0.5680329
C	-6.2505934	2.0164337	-0.2783766
H	-8.2755950	2.2453462	0.2738847
H	-7.0272117	2.7085938	1.5695748
H	-6.4577768	1.6504572	-1.2763937
C	-4.8333379	2.1471432	0.1221577
O	-4.4421859	2.5441656	1.2066320
O	-4.0682230	1.7533813	-0.9260640
C	-2.6507533	1.8103435	-0.7111160
C	-2.1251912	3.1935416	-1.0465124
H	-2.1959297	1.0719460	-1.3795773
H	-2.3904404	1.5201022	0.3133775
H	-2.3918804	3.4678372	-2.0724578
H	-1.0371370	3.2306950	-0.9425826
H	-2.5649818	3.9508362	-0.3898415
C	-11.7708473	1.6183481	2.0595231
H	-12.1070335	2.5571140	2.4895370
H	-11.8347236	0.7402962	2.6915916
H	-11.2750837	2.5117420	0.2387448
C	-11.3053279	1.5818817	0.8058586
C	-10.8230609	0.4216501	0.0918584
C	-10.7506588	-0.8334755	0.5478064
H	-10.4872525	0.6136735	-0.9262316
H	-11.0582561	-1.1271279	1.5417174
O	-10.2696699	-1.8484700	-0.2383641
C	-10.2741515	-3.1068702	0.4294789
H	-9.8788260	-3.8588406	-0.2595284
H	-11.2936142	-3.3962882	0.7065868
H	-9.6301018	-3.0792843	1.3150729
