29
0 (energy)
C	-3.5807301	3.8515176	2.0755658
C	-3.3283358	3.0562537	1.0283170
H	-2.7927386	4.1239309	2.7693586
H	-4.5760084	4.2466017	2.2626309
H	-2.3370683	2.6621298	0.8413489
C	-4.4022711	2.6845243	0.0824807
O	-5.5642029	3.0460451	0.1594766
O	-3.8603953	1.8787379	-0.8642488
C	-4.7671075	1.4214284	-1.8778605
C	-5.4673832	0.1551436	-1.4217026
H	-4.1689624	1.2099121	-2.7702837
H	-5.4870986	2.2016315	-2.1507809
H	-4.7353829	-0.6140366	-1.1543771
H	-6.1168753	-0.2345120	-2.2106083
H	-6.0740068	0.3411653	-0.5297771
C	-13.1168103	-0.2868311	2.5124844
H	-13.9519857	-0.0174188	3.1521042
H	-12.4964109	-1.1128025	2.8402675
H	-13.5649997	1.2071339	1.1245498
C	-12.8921013	0.3891717	1.3801244
C	-11.8315252	0.1575054	0.4261727
C	-10.8751332	-0.7747955	0.4939984
H	-11.8304409	0.8264302	-0.4332958
H	-10.7892806	-1.4853028	1.3042550
O	-9.9222091	-0.8878083	-0.4851808
C	-8.9960728	-1.9394755	-0.2285228
H	-8.2735243	-1.9640633	-1.0493710
H	-9.5075156	-2.9074088	-0.1912778
H	-8.4510647	-1.7585086	0.7042446
