29
0 (energy)
C	-5.1426077	3.8927081	2.1119096
C	-4.6098629	3.7416876	0.8927896
H	-5.0240955	4.8216588	2.6591697
H	-5.7066762	3.0951049	2.5886899
H	-4.0476477	4.5357937	0.4171727
C	-4.7710207	2.4754652	0.1465759
O	-5.3731003	1.4939347	0.5475863
O	-4.1315021	2.6102144	-1.0417324
C	-4.1893893	1.4669179	-1.9067121
C	-3.0593793	0.5075411	-1.5832670
H	-4.0771514	1.8352912	-2.9317193
H	-5.1653017	0.9711747	-1.8482039
H	-2.0922782	1.0169768	-1.6474238
H	-3.0591708	-0.3389539	-2.2757191
H	-3.1500049	0.1236928	-0.5622014
C	-8.2727661	-0.8695233	1.1671356
H	-7.1929935	-0.8770225	1.2822415
H	-8.8244498	-1.6499153	1.6782122
H	-8.2332323	0.8210788	-0.0573927
C	-8.8627710	0.0724845	0.4226703
C	-10.2781530	0.2207240	0.1712071
C	-11.2650537	-0.5540696	0.6340170
H	-10.5473448	1.0612414	-0.4669260
H	-11.1028430	-1.4108084	1.2730735
O	-12.5748363	-0.3013974	0.3173877
C	-13.4709544	-1.2386256	0.9074565
H	-14.4885374	-0.9703019	0.6091278
H	-13.4110516	-1.1986841	2.0004671
H	-13.2637160	-2.2529626	0.5496711
