29
0 (energy)
C	-5.5771803	3.9690895	-2.1815774
C	-5.1799277	3.7457354	-0.9225377
H	-6.1231840	4.8697661	-2.4407100
H	-5.3668368	3.2601917	-2.9783729
H	-5.3892223	4.4514378	-0.1281312
C	-4.4358094	2.5179978	-0.5688789
O	-4.1272920	1.6327910	-1.3485821
O	-4.1713547	2.5618998	0.7605399
C	-3.4429129	1.4411702	1.2820812
C	-4.3992189	0.3277157	1.6663221
H	-2.9102381	1.7920445	2.1720704
H	-2.6855161	1.0915500	0.5709515
H	-5.1478462	0.6921725	2.3774155
H	-3.8590591	-0.5081644	2.1197266
H	-4.9439944	-0.0415850	0.7916999
C	-7.5915213	-1.9595805	-0.1015267
H	-7.2375473	-2.9861074	-0.0888996
H	-7.6338647	-1.4687656	-1.0668627
H	-7.8772069	-1.9245811	1.9664014
C	-7.9505936	-1.3584086	1.0383734
C	-8.4390341	-0.0068804	1.1910574
C	-8.6245064	0.8978008	0.2237813
H	-8.6754047	0.2850374	2.2133394
H	-8.4202104	0.7068604	-0.8204945
O	-9.0969036	2.1534514	0.5062887
C	-9.2240373	2.9648808	-0.6577666
H	-9.6037677	3.9434997	-0.3502234
H	-9.9379520	2.5247578	-1.3623753
H	-8.2507840	3.1092839	-1.1391850
