29
0 (energy)
C	-6.0025817	4.4721635	-1.1576149
C	-5.4356040	3.2689185	-1.3112887
H	-6.4367856	4.9941925	-2.0034522
H	-6.0455049	4.9607472	-0.1875081
H	-5.3923229	2.7815629	-2.2774735
C	-4.8434283	2.5571043	-0.1585639
O	-4.8135544	2.9746017	0.9866498
O	-4.3470038	1.3784049	-0.6096165
C	-3.7331320	0.5463614	0.3851361
C	-2.2722534	0.9203947	0.5520975
H	-3.8101274	-0.4865597	0.0300563
H	-4.2721069	0.5998279	1.3381507
H	-1.7480088	0.8607049	-0.4073451
H	-1.7802064	0.2532243	1.2654116
H	-2.1685764	1.9502638	0.9081145
C	-8.7373680	-2.2977507	-0.4358344
H	-8.6764602	-3.3103572	-0.8233039
H	-7.8125287	-1.8491718	-0.0923011
H	-10.7962955	-2.1865105	-0.7638759
C	-9.9139496	-1.6621778	-0.3982067
C	-10.1625079	-0.3226975	0.0840031
C	-9.2653580	0.5342521	0.5832330
H	-11.1999936	0.0033113	0.0249337
H	-8.2132274	0.3070818	0.6838407
O	-9.6361557	1.7839264	1.0080285
C	-8.5366479	2.5415478	1.5047153
H	-8.9125160	3.5187492	1.8213749
H	-7.7872488	2.6985370	0.7213819
H	-8.0854549	2.0487310	2.3726982
