29
0 (energy)
C	-6.5785344	2.4455630	-2.0847368
C	-5.4148582	1.9355981	-1.6620418
H	-6.9446376	2.2406646	-3.0849734
H	-7.1890254	3.0765875	-1.4438214
H	-4.8060055	1.3069559	-2.3000145
C	-4.9153773	2.2148562	-0.2987151
O	-5.4841292	2.9026152	0.5320797
O	-3.7274560	1.5768918	-0.1535856
C	-3.0942365	1.7350084	1.1241858
C	-2.2446456	2.9919896	1.1358768
H	-2.4560471	0.8582391	1.2755988
H	-3.8303475	1.7410830	1.9364009
H	-1.5142400	2.9699760	0.3204330
H	-1.7109574	3.0905241	2.0853565
H	-2.8610474	3.8842325	0.9872874
C	-11.4823892	-3.3214734	0.7829113
H	-11.7120479	-4.3693570	0.9514674
H	-10.6641363	-3.1028238	0.1067306
H	-13.0020501	-2.6769090	2.0613225
C	-12.1951746	-2.3700792	1.3965065
C	-12.0178405	-0.9405953	1.2797019
C	-11.1093227	-0.2985417	0.5375204
H	-12.7101427	-0.3406309	1.8686908
H	-10.3791042	-0.8015362	-0.0809329
O	-11.0484429	1.0709373	0.5163286
C	-10.0146183	1.5595381	-0.3334252
H	-10.0316897	2.6525880	-0.2957002
H	-10.1838317	1.2483898	-1.3699624
H	-9.0329992	1.2186311	0.0130486
