29
0 (energy)
C	-4.9436502	1.8992618	-2.9635687
C	-5.0930182	2.5890803	-1.8257122
H	-5.5134201	2.1581614	-3.8494701
H	-4.2518034	1.0638843	-3.0353737
H	-5.7821810	3.4213774	-1.7533374
C	-4.3166694	2.2363243	-0.6178333
O	-3.5062707	1.3284351	-0.5423201
O	-4.6735971	3.0945206	0.3697495
C	-4.0083498	2.9004669	1.6261160
C	-4.7527575	1.8746867	2.4601277
H	-4.0112640	3.8662104	2.1421265
H	-2.9595886	2.6156882	1.4826211
H	-5.7972678	2.1740353	2.5954568
H	-4.2872968	1.7627852	3.4434222
H	-4.7628287	0.8984466	1.9651720
C	-6.7525271	-0.8132415	-0.6384742
H	-5.9562731	-1.4419481	-1.0256717
H	-6.5679074	0.2545520	-0.6212016
H	-7.9986007	-2.4459540	-0.2633497
C	-7.8949668	-1.3625850	-0.2109625
C	-9.0430943	-0.6702310	0.3284486
C	-9.1813581	0.6485193	0.5023794
H	-9.8740958	-1.3118742	0.6180656
H	-8.4164531	1.3686030	0.2472192
O	-10.3309279	1.1792703	1.0281365
C	-10.2802166	2.5991971	1.1322603
H	-11.2276450	2.9429804	1.5573078
H	-10.1598592	3.0573695	0.1446127
H	-9.4701046	2.9113316	1.8001886
