29
0 (energy)
C	-6.3778231	1.6395456	1.8861397
C	-6.0105812	2.3026607	0.7823782
H	-7.2997158	1.8859327	2.4017901
H	-5.7683404	0.8390627	2.2977483
H	-6.6171763	3.1003710	0.3717657
C	-4.7538725	1.9672255	0.0793190
O	-3.9678229	1.0990006	0.4184687
O	-4.6430783	2.7947240	-0.9894134
C	-3.4728775	2.6052817	-1.7977508
C	-2.3169384	3.4175397	-1.2445917
H	-3.7198804	2.9558060	-2.8052517
H	-3.2130908	1.5436229	-1.8813050
H	-2.5915106	4.4747902	-1.1687178
H	-1.4365937	3.3266031	-1.8870615
H	-2.0497702	3.0847704	-0.2366170
C	-10.2943204	1.7549536	-1.3954803
H	-10.5534069	2.5420797	-2.0972788
H	-9.3051709	1.3221467	-1.4894335
H	-12.1511136	1.8498445	-0.4454893
C	-11.1774318	1.3615047	-0.4708045
C	-10.9890317	0.3351365	0.5289898
C	-9.8982678	-0.4148316	0.7193923
H	-11.8406752	0.1716733	1.1878757
H	-9.0024208	-0.3300177	0.1202498
O	-9.8501013	-1.3601112	1.7112362
C	-8.6043470	-2.0502238	1.7492687
H	-8.6456091	-2.7818065	2.5613998
H	-7.7815805	-1.3563258	1.9527797
H	-8.4286888	-2.5873781	0.8109472
