29
0 (energy)
C	-4.9025658	-0.3254168	-1.3112810
C	-4.9862738	0.5355909	-0.2892553
H	-5.1415196	-1.3746432	-1.1752178
H	-4.5946912	-0.0028928	-2.3026715
H	-5.2927869	0.2150186	0.6987654
C	-4.6604210	1.9658729	-0.4742935
O	-4.3007826	2.4759956	-1.5217410
O	-4.8304485	2.5875970	0.7189239
C	-4.5608350	3.9968333	0.7243463
C	-3.0862745	4.2471263	0.9792346
H	-5.1535043	4.4327771	1.5352914
H	-4.8927230	4.4702791	-0.2069373
H	-2.7709735	3.7695658	1.9127476
H	-2.8804478	5.3192636	1.0440493
H	-2.4715438	3.8210027	0.1800775
C	-8.4440222	1.7659687	0.8536709
H	-7.7951728	2.5851124	1.1489886
H	-8.2704374	1.3328766	-0.1245241
H	-9.5093169	1.8273757	2.6482583
C	-9.4026480	1.3358015	1.6817443
C	-10.3423155	0.2646272	1.4406513
C	-10.4319172	-0.4985840	0.3461417
H	-11.0442282	0.0759930	2.2517512
H	-9.7833644	-0.3914236	-0.5121141
O	-11.3758634	-1.4876939	0.2448741
C	-11.3066988	-2.1850413	-0.9955002
H	-12.0864463	-2.9521524	-0.9981989
H	-10.3363807	-2.6803808	-1.1094188
H	-11.4900890	-1.5051169	-1.8344928
