29
0 (energy)
C	-4.4998198	5.1224328	-0.4752716
C	-4.1199562	4.0193909	0.1819041
H	-4.3282362	6.1071888	-0.0541982
H	-4.9887356	5.0667565	-1.4445627
H	-3.6329345	4.0740240	1.1476820
C	-4.3538714	2.6768450	-0.3916639
O	-4.8892128	2.4531696	-1.4640864
O	-3.8731948	1.7615017	0.4860118
C	-4.0124793	0.3906393	0.0860072
C	-5.3679565	-0.1435127	0.5094533
H	-3.2209779	-0.1721345	0.5917216
H	-3.8534624	0.2712881	-0.9919810
H	-5.5107197	-0.0184437	1.5878325
H	-5.4612931	-1.2046099	0.2616533
H	-6.1774639	0.4031703	0.0155273
C	-10.9701155	1.0307040	-1.7039146
H	-11.2881530	1.5026283	-2.6287681
H	-9.9856707	1.2931405	-1.3343724
H	-12.7539816	-0.0377396	-1.5157194
C	-11.7793660	0.1705993	-1.0753875
C	-11.5075458	-0.5368797	0.1551011
C	-10.3976112	-0.4663126	0.8977563
H	-12.3072514	-1.1930333	0.4958076
H	-9.5486147	0.1539769	0.6464540
O	-10.2671198	-1.1951662	2.0516074
C	-9.0143363	-0.9810264	2.6952557
H	-8.9884412	-1.5935245	3.6011521
H	-8.9013327	0.0688670	2.9864770
H	-8.1866948	-1.2896777	2.0475046
