29
0 (energy)
C	-4.3321071	1.6564612	-2.9607874
C	-4.3373147	2.5326290	-1.9482755
H	-4.3973645	1.9949903	-3.9891977
H	-4.2628927	0.5858201	-2.7858569
H	-4.4063835	3.5994211	-2.1217288
C	-4.2485892	2.0715304	-0.5462620
O	-4.1671862	0.9076809	-0.1919470
O	-4.2785174	3.1666943	0.2530742
C	-4.1960765	2.9050986	1.6614203
C	-5.5793486	2.6448038	2.2277667
H	-3.7696263	3.7989834	2.1283744
H	-3.5130970	2.0744135	1.8737663
H	-6.2485102	3.4833729	2.0087921
H	-5.5343571	2.5025851	3.3111842
H	-6.0272950	1.7537366	1.7766895
C	-9.4802572	1.4544846	1.6795456
H	-9.0384418	2.3290048	2.1477634
H	-8.7957154	0.7166707	1.2775519
H	-11.4267430	2.1139308	2.0476375
C	-10.8103385	1.3246596	1.6183714
C	-11.5501337	0.2296846	1.0333520
C	-11.0466612	-0.8596608	0.4431714
H	-12.6337291	0.3228570	1.0906885
H	-9.9871486	-1.0457734	0.3359240
O	-11.8653179	-1.8300862	-0.0742296
C	-11.1368877	-2.9059458	-0.6586277
H	-11.8565066	-3.6331544	-1.0456535
H	-10.5125786	-3.4049237	0.0904484
H	-10.5230195	-2.5514903	-1.4937115
