29
0 (energy)
C	-6.4114862	4.3413037	0.2069846
C	-5.9499498	3.2612232	-0.4358901
H	-7.2545640	4.9018530	-0.1822356
H	-5.9593782	4.6884146	1.1326066
H	-6.3997410	2.9148580	-1.3581812
C	-4.8005986	2.4969816	0.0942539
O	-4.1903610	2.7619081	1.1160832
O	-4.5576434	1.4696438	-0.7570791
C	-3.4673343	0.6110638	-0.3927521
C	-2.1618987	1.1640760	-0.9330840
H	-3.6665357	-0.3672452	-0.8423811
H	-3.4213687	0.4629080	0.6923869
H	-2.2234128	1.3048669	-2.0172054
H	-1.3324759	0.4865717	-0.7115221
H	-1.9394560	2.1430619	-0.4969267
C	-13.0044444	-1.9533660	2.5478484
H	-13.7021167	-2.5271697	3.1505233
H	-12.3034951	-1.3210520	3.0802156
H	-13.7727496	-2.7056062	0.7581530
C	-13.0352264	-2.0454364	1.2135738
C	-12.1815071	-1.3531421	0.2752738
C	-11.2004829	-0.4906626	0.5619648
H	-12.3759723	-1.5727696	-0.7735801
H	-10.9294421	-0.2068477	1.5692846
O	-10.4611913	0.1000352	-0.4300795
C	-9.4677478	0.9842451	0.0806536
H	-8.9250217	1.4120183	-0.7672445
H	-8.7523030	0.4434888	0.7096028
H	-9.9285783	1.8036158	0.6428855
