29
0 (energy)
C	-3.8169395	3.8650688	2.1450086
C	-4.6260871	3.0273090	1.4844660
H	-4.1394518	4.3390501	3.0657776
H	-2.8183945	4.0953358	1.7823123
H	-5.6210956	2.7975022	1.8450888
C	-4.1868860	2.3811786	0.2291797
O	-3.1007501	2.5401450	-0.3016213
O	-5.2026343	1.5980523	-0.2114864
C	-4.9471818	0.8833662	-1.4291216
C	-5.2986792	1.7461734	-2.6266008
H	-5.5846768	-0.0068003	-1.4173065
H	-3.9090091	0.5348114	-1.4770461
H	-6.3381239	2.0847656	-2.5646706
H	-5.1634634	1.1899013	-3.5584387
H	-4.6729570	2.6436055	-2.6614531
C	-7.5373043	-0.5964342	2.4255018
H	-7.0110027	-0.8291032	3.3464177
H	-7.2621340	-1.1684953	1.5470980
H	-8.6911158	0.8847885	3.3386645
C	-8.4755786	0.3570424	2.4101169
C	-9.2614870	0.7839735	1.2749549
C	-9.2002366	0.3079622	0.0267031
H	-9.9745256	1.5808668	1.4815575
H	-8.5275732	-0.4808253	-0.2799649
O	-10.0076351	0.8047950	-0.9636972
C	-9.7898805	0.1666649	-2.2186786
H	-10.4671218	0.6161124	-2.9506718
H	-10.0137984	-0.9036672	-2.1546021
H	-8.7610355	0.3225680	-2.5607458
