29
0 (energy)
C	-1.9333128	2.8372349	-1.4070531
C	-2.7704933	2.0036122	-0.7769106
H	-0.9002694	2.5583903	-1.5846907
H	-2.2596919	3.8128904	-1.7581041
H	-2.4460544	1.0314879	-0.4267455
C	-4.1786952	2.3834539	-0.5343954
O	-4.6899896	3.4394511	-0.8662976
O	-4.7787838	1.3566008	0.1172828
C	-6.1648781	1.5517427	0.4324492
C	-6.3037817	2.2721610	1.7604727
H	-6.6196900	0.5582515	0.5035638
H	-6.6852141	2.0869171	-0.3703138
H	-5.7804517	1.7248569	2.5513640
H	-7.3566431	2.3734757	2.0384329
H	-5.8568933	3.2703166	1.7146081
C	-8.5812447	-2.0890675	0.4602914
H	-7.6967256	-2.7079470	0.5778863
H	-9.1496375	-2.2170495	-0.4535554
H	-8.2977386	-1.1540155	2.3054119
C	-8.9252659	-1.2196705	1.4171148
C	-10.0641508	-0.3300390	1.4136526
C	-10.9886786	-0.2071143	0.4552116
H	-10.1601130	0.2992596	2.2973505
H	-10.9828718	-0.7847046	-0.4586061
O	-12.0254407	0.6815581	0.5777416
C	-12.8996323	0.6608043	-0.5469645
H	-13.6944069	1.3920148	-0.3733632
H	-13.3598179	-0.3263666	-0.6634921
H	-12.3650551	0.9440046	-1.4601253
