29
0 (energy)
C	-4.9287342	0.0462255	1.6047601
C	-4.7489155	0.5572140	0.3802465
H	-5.2350343	-0.9858569	1.7369505
H	-4.7747186	0.6449034	2.4989232
H	-4.9022901	-0.0385461	-0.5110716
C	-4.3315929	1.9641086	0.1996489
O	-4.1218372	2.7573310	1.1015978
O	-4.2328256	2.1995821	-1.1322728
C	-3.8291451	3.5275683	-1.4958140
C	-5.0397269	4.4381091	-1.5815489
H	-3.3503398	3.4587104	-2.4781276
H	-3.0796622	3.9215474	-0.7996492
H	-5.7775682	4.0319106	-2.2812047
H	-4.7497746	5.4383452	-1.9154638
H	-5.5360858	4.5243618	-0.6097898
C	-9.6004784	-0.4117075	-2.1777964
H	-9.7022956	-0.6566124	-3.2308250
H	-8.6854305	0.0854322	-1.8776211
H	-11.4649922	-1.2227740	-1.7035313
C	-10.5770008	-0.7228032	-1.3179496
C	-10.5958550	-0.4674354	0.1043538
C	-9.6426028	0.1271947	0.8297477
H	-11.4933917	-0.8042083	0.6212285
H	-8.7163093	0.4962795	0.4120592
O	-9.7871483	0.3087237	2.1809626
C	-8.6643934	0.9595182	2.7687495
H	-8.8559494	1.0663857	3.8403643
H	-8.5273369	1.9591635	2.3423921
H	-7.7563711	0.3606368	2.6396200
