29
0 (energy)
C	-2.5550216	1.5790313	-2.1972857
C	-3.1360529	1.3600944	-1.0109692
H	-1.6760697	1.0189020	-2.4975968
H	-2.9426496	2.3196489	-2.8921913
H	-2.7503886	0.6225143	-0.3180475
C	-4.3340798	2.1235846	-0.6011640
O	-4.8823225	2.9844070	-1.2683415
O	-4.6962564	1.6954448	0.6336406
C	-5.8553944	2.3308314	1.1916286
C	-5.4573438	3.6018075	1.9183465
H	-6.2969654	1.6239640	1.9017620
H	-6.6111758	2.5286150	0.4226905
H	-4.7037607	3.3874137	2.6832472
H	-6.3256708	4.0626759	2.3975671
H	-5.0135235	4.3263742	1.2283074
C	-8.4940569	-1.7970550	-1.0683936
H	-8.0278616	-2.6453450	-1.5606133
H	-8.4111547	-0.8373427	-1.5650277
H	-9.1693027	-2.9628749	0.5266221
C	-9.1328125	-1.9629750	0.0952966
C	-9.8005789	-0.9439115	0.8725434
C	-9.9066376	0.3559870	0.5767622
H	-10.2601803	-1.2952528	1.7952965
H	-9.4862797	0.8027597	-0.3134066
O	-10.5718704	1.2215119	1.4061958
C	-10.5724842	2.5586779	0.9146754
H	-11.1187981	3.1827792	1.6277753
H	-11.0812902	2.6167002	-0.0536250
H	-9.5501470	2.9434655	0.8334180
