29
0 (energy)
C	-4.9617944	3.1846706	-2.8314834
C	-4.1382408	2.7120156	-1.8874313
H	-4.5747686	3.5342201	-3.7825430
H	-6.0365982	3.2329119	-2.6761345
H	-3.0673204	2.6637608	-2.0413882
C	-4.6654226	2.2356369	-0.5907939
O	-5.8415778	2.2276101	-0.2693819
O	-3.6130097	1.8220856	0.1579520
C	-3.9425547	1.3175915	1.4600863
C	-4.0091399	2.4555419	2.4613747
H	-3.1455724	0.6229638	1.7451256
H	-4.8769667	0.7447764	1.4414654
H	-3.0688067	3.0164702	2.4690104
H	-4.2015427	2.0751456	3.4685110
H	-4.8006772	3.1643986	2.1984711
C	-9.1301209	2.4380801	2.0009944
H	-9.3084970	3.3070463	2.6273282
H	-8.0967812	2.1492285	1.8482207
H	-11.1681498	2.1354265	1.6633452
C	-10.1595022	1.7777369	1.4587454
C	-10.0919757	0.6113044	0.6082217
C	-8.9898337	-0.0283052	0.2024464
H	-11.0550964	0.2287763	0.2732316
H	-7.9886582	0.2714837	0.4789986
O	-9.0661035	-1.1305574	-0.6092500
C	-7.7845596	-1.6651020	-0.9278609
H	-7.9303428	-2.5356987	-1.5738342
H	-7.2636528	-1.9925160	-0.0215983
H	-7.1811361	-0.9303291	-1.4717605
