29
0 (energy)
C	-1.7325638	1.5182492	-0.6812557
C	-2.7660127	2.3594112	-0.8128141
H	-0.8264611	1.6558720	-1.2613642
H	-1.7683125	0.6767489	0.0059582
H	-2.7312207	3.1979229	-1.4973501
C	-4.0014081	2.1720103	-0.0223681
O	-4.1916099	1.2783028	0.7849864
O	-4.8653318	3.1604617	-0.3626881
C	-6.1281960	3.1376116	0.3179877
C	-7.1049396	2.2413220	-0.4199689
H	-6.5059039	4.1653318	0.3259845
H	-6.0125352	2.8293571	1.3635457
H	-7.2104494	2.5628537	-1.4613192
H	-8.0884772	2.2633665	0.0577460
H	-6.7496921	1.2061911	-0.4407218
C	-12.8511911	-2.7080084	-0.1245537
H	-13.3146826	-3.6185261	-0.4924499
H	-13.5139849	-1.9473483	0.2712574
H	-10.9285117	-3.3783765	-0.5861579
C	-11.5220306	-2.5638411	-0.1721044
C	-10.7557059	-1.4224662	0.2734568
C	-11.2287285	-0.2957799	0.8168708
H	-9.6781205	-1.5114276	0.1429073
H	-12.2798526	-0.1102154	0.9883666
O	-10.3870934	0.7169275	1.1985803
C	-11.0846941	1.8280204	1.7539463
H	-10.3482033	2.5876693	2.0314125
H	-11.6308431	1.5325437	2.6563157
H	-11.7688479	2.2646286	1.0183210
