29
0 (energy)
C	-6.2807251	0.9318716	1.6173493
C	-5.0386200	1.2232143	1.2109356
H	-6.4550529	0.1714050	2.3708667
H	-7.1477124	1.4442744	1.2081551
H	-4.1743644	0.7130708	1.6180202
C	-4.8006062	2.2596299	0.1836489
O	-5.6674673	2.9167415	-0.3672299
O	-3.4630260	2.3350984	-0.0270681
C	-3.0453149	3.3035872	-0.9998038
C	-3.0737156	2.6959365	-2.3897309
H	-2.0200054	3.5912169	-0.7449598
H	-3.6567259	4.2118567	-0.9467679
H	-2.4577776	1.7913984	-2.4265615
H	-2.7007613	3.4075191	-3.1317545
H	-4.0901283	2.4006785	-2.6687567
C	-10.2487400	2.3346638	-0.7361966
H	-10.2858221	3.2247097	-1.3572100
H	-10.8741742	2.3295441	0.1488862
H	-8.8607389	1.3978017	-1.9831570
C	-9.4578162	1.3105860	-1.0759278
C	-9.2954802	0.0645447	-0.3621049
C	-9.9038517	-0.3007969	0.7714209
H	-8.5971358	-0.6381789	-0.8144789
H	-10.6124614	0.3234696	1.2976058
O	-9.6587294	-1.5200897	1.3483680
C	-10.4031696	-1.7178311	2.5468306
H	-10.1535542	-2.7064038	2.9429226
H	-11.4794370	-1.6897735	2.3450459
H	-10.1352052	-0.9680895	3.2991074
