29
0 (energy)
C	-2.9483483	4.3298919	-1.4702052
C	-3.1426049	3.4860630	-0.4488851
H	-2.1831679	5.0969862	-1.4196743
H	-3.5468453	4.2736589	-2.3759110
H	-2.5468474	3.5415341	0.4538318
C	-4.1857020	2.4404091	-0.5173141
O	-4.9341619	2.2536410	-1.4615792
O	-4.1541602	1.7464418	0.6474316
C	-5.1058086	0.6780571	0.7550749
C	-6.4268333	1.2044747	1.2839618
H	-4.6911183	-0.0498629	1.4601284
H	-5.2349778	0.1606122	-0.2026076
H	-6.2812398	1.7167920	2.2406534
H	-7.1407809	0.3882285	1.4256120
H	-6.8630202	1.9345718	0.5948851
C	-12.1245454	-1.1074757	-1.6541049
H	-12.5560974	-1.2329934	-2.6426505
H	-12.4617078	-1.7903729	-0.8830414
H	-10.9379805	0.4986061	-2.2638036
C	-11.2218001	-0.1454664	-1.4320645
C	-10.5576937	0.1509088	-0.1832092
C	-10.7190817	-0.4789433	0.9854273
H	-9.8537520	0.9810711	-0.2212101
H	-11.3923296	-1.3128294	1.1271246
O	-10.0223976	-0.0946655	2.1019352
C	-10.3351258	-0.8892001	3.2423392
H	-9.7426522	-0.5220467	4.0853375
H	-10.0730775	-1.9385155	3.0687776
H	-11.3955028	-0.7973624	3.5011909
