29
0 (energy)
C	-4.3130752	1.7822162	2.6725759
C	-4.9490691	2.2514749	1.5917495
H	-4.6900423	1.9820077	3.6698056
H	-3.4053384	1.1904707	2.5858882
H	-5.8533943	2.8412039	1.6772913
C	-4.4353932	1.9795154	0.2322271
O	-3.4328853	1.3351115	-0.0255181
O	-5.2721433	2.5744244	-0.6538602
C	-4.9264322	2.4080035	-2.0364142
C	-3.9523194	3.4887366	-2.4666040
H	-5.8539460	2.4987853	-2.6112296
H	-4.5250355	1.4064479	-2.2296932
H	-4.3681081	4.4821186	-2.2685198
H	-3.7280695	3.4062218	-3.5338186
H	-3.0147672	3.4183679	-1.9060939
C	-9.4129532	2.6958860	-0.0133057
H	-9.2459044	3.7070929	-0.3721507
H	-9.8493610	2.5929912	0.9733689
H	-8.6499147	1.8408018	-1.7585194
C	-9.0843750	1.6485045	-0.7779895
C	-9.2413859	0.2499745	-0.4493919
C	-9.7439719	-0.2618599	0.6792816
H	-8.9076104	-0.4445947	-1.2190121
H	-10.1018923	0.3414719	1.5018329
O	-9.8375681	-1.6169819	0.8650564
C	-10.3985412	-1.9584305	2.1293062
H	-10.4390170	-3.0492359	2.1998615
H	-11.4186402	-1.5697417	2.2197206
H	-9.7724835	-1.5838249	2.9463498
