29
0 (energy)
C	-7.2778287	1.7472396	0.0014871
C	-6.2138114	2.2800733	-0.6123802
H	-8.2840940	1.9709871	-0.3359375
H	-7.1680732	1.0784097	0.8513600
H	-6.3223359	2.9466032	-1.4590573
C	-4.8419788	1.9754745	-0.1525747
O	-4.5588584	1.2472906	0.7835354
O	-3.9777243	2.6495226	-0.9512869
C	-2.5871114	2.4650763	-0.6498851
C	-2.1438054	3.4592113	0.4070532
H	-2.0325675	2.6423332	-1.5772453
H	-2.3786864	1.4336800	-0.3426874
H	-2.3572822	4.4836959	0.0848976
H	-1.0715762	3.3663640	0.6013409
H	-2.6839738	3.3015231	1.3459248
C	-10.0909558	-3.0575888	0.5023438
H	-9.5334948	-3.9627355	0.2806209
H	-10.7045441	-3.0676454	1.3956378
H	-9.3616857	-2.0719226	-1.1875660
C	-10.0023650	-1.9978819	-0.3093741
C	-10.6750684	-0.7280061	-0.1564022
C	-11.5122691	-0.3716790	0.8236983
H	-10.4624626	0.0029625	-0.9352677
H	-11.7872186	-1.0231895	1.6414048
O	-12.0863657	0.8730414	0.8503851
C	-12.9445300	1.0557755	1.9727789
H	-13.3603585	2.0662055	1.9218789
H	-12.3848588	0.9608612	2.9095901
H	-13.7739911	0.3407653	1.9484382
