29
0 (energy)
C	-4.2187367	-0.5200287	0.5003168
C	-4.8058179	0.6748197	0.6436719
H	-4.4617884	-1.3421256	1.1648245
H	-3.4851709	-0.7030402	-0.2807413
H	-5.5366396	0.8579774	1.4216532
C	-4.4746032	1.7957577	-0.2618229
O	-3.6745055	1.7455600	-1.1805367
O	-5.2119249	2.8683211	0.1192054
C	-5.0203225	4.0572854	-0.6607433
C	-3.8542468	4.8597913	-0.1146711
H	-5.9409218	4.6445855	-0.5800504
H	-4.8819504	3.8204388	-1.7220381
H	-4.0081276	5.0893363	0.9448359
H	-3.7368051	5.7971970	-0.6655993
H	-2.9201890	4.2935274	-0.1854417
C	-13.0468322	0.8158377	-0.5666235
H	-13.9584122	1.2217189	-0.9949886
H	-12.1438885	1.4016508	-0.6934363
H	-14.0228485	-0.8795077	0.1630094
C	-13.0716024	-0.3545741	0.0808607
C	-11.9538511	-1.0266010	0.7033772
C	-10.6849186	-0.6069889	0.7503581
H	-12.1941251	-1.9760237	1.1798355
H	-10.3448702	0.3193785	0.3088634
O	-9.7149464	-1.3456898	1.3773373
C	-8.4324521	-0.7282992	1.3169820
H	-7.7190216	-1.3750467	1.8358339
H	-8.4450048	0.2441165	1.8210711
H	-8.1032505	-0.6166292	0.2782357
