29
0 (energy)
C	-7.2528123	2.6128460	0.4065026
C	-6.0004597	3.0823351	0.3426996
H	-8.0430553	3.1976736	0.8647390
H	-7.5156817	1.6378128	0.0041675
H	-5.7377480	4.0535717	0.7434288
C	-4.9229341	2.2853294	-0.2816773
O	-5.0611456	1.1783511	-0.7738235
O	-3.7755346	3.0037217	-0.2004066
C	-2.6149869	2.3790804	-0.7675221
C	-1.9461053	1.4854797	0.2601054
H	-1.9296536	3.1819080	-1.0585927
H	-2.8656606	1.8240252	-1.6789310
H	-1.7009767	2.0544275	1.1629540
H	-1.0273925	1.0505995	-0.1434908
H	-2.6120167	0.6727138	0.5668642
C	-12.3493949	-2.3991519	3.1002333
H	-12.4832260	-3.0816707	3.9341828
H	-11.8863104	-1.4441242	3.3194154
H	-13.2053282	-3.7314181	1.7394935
C	-12.7483260	-2.7513445	1.8728266
C	-12.6425609	-1.9636980	0.6657882
C	-12.1268304	-0.7355633	0.5467163
H	-13.0312952	-2.4419318	-0.2321682
H	-11.7162981	-0.1765915	1.3760056
O	-12.0870847	-0.0959732	-0.6652956
C	-11.5011687	1.1998748	-0.5811184
H	-11.5065383	1.6410971	-1.5820014
H	-10.4625467	1.1354403	-0.2391121
H	-12.0834012	1.8473562	0.0834197
