29
0 (energy)
C	-2.0117045	3.4313888	0.8056281
C	-3.3259956	3.4960641	0.5579717
H	-1.4587082	4.3144730	1.1070340
H	-1.4609281	2.4987781	0.7131819
H	-3.8753994	4.4248484	0.6497155
C	-4.0801078	2.2925491	0.1468846
O	-3.6038306	1.1798424	-0.0006109
O	-5.3740030	2.6559536	-0.0347476
C	-6.2607498	1.6013330	-0.4349017
C	-6.2517270	1.4539546	-1.9449154
H	-7.2642215	1.8823304	-0.0987157
H	-6.0078635	0.6573207	0.0615646
H	-6.5074059	2.4040106	-2.4254850
H	-6.9686394	0.6924212	-2.2645204
H	-5.2577854	1.1716682	-2.3061936
C	-14.2777983	-1.6566274	1.8493326
H	-15.2859367	-1.7874650	2.2311085
H	-13.5742710	-2.4583147	2.0414594
H	-14.7210149	0.2112454	1.0284928
C	-13.9523085	-0.5463906	1.1776602
C	-12.6640844	-0.2215968	0.6088873
C	-11.5548322	-0.9676956	0.6458625
H	-12.6142724	0.7398326	0.0996527
H	-11.5006840	-1.9349502	1.1256474
O	-10.3904724	-0.5392249	0.0625040
C	-9.3270998	-1.4755237	0.2114630
H	-8.4398032	-1.0628775	-0.2773118
H	-9.5756197	-2.4262762	-0.2724412
H	-9.0943058	-1.6342501	1.2699764
