29
0 (energy)
C	-2.5246391	4.3863564	-0.3399706
C	-2.8575417	3.1218161	-0.0518882
H	-1.5448434	4.7752320	-0.0845021
H	-3.2204748	5.0587272	-0.8353428
H	-2.1649099	2.4513776	0.4417464
C	-4.1931256	2.5914285	-0.3997828
O	-5.0780362	3.2211927	-0.9538960
O	-4.2459442	1.2997473	0.0100806
C	-5.4808786	0.6186448	-0.2539349
C	-6.4626016	0.8561957	0.8782015
H	-5.2490028	-0.4493302	-0.3217504
H	-5.9031462	0.9180317	-1.2201891
H	-6.0269107	0.5510874	1.8352844
H	-7.3860505	0.2934120	0.7152278
H	-6.7116512	1.9184640	0.9658814
C	-14.3408320	0.7433691	0.2496318
H	-15.1960052	1.3823827	0.0507476
H	-13.3612324	1.2017940	0.1803709
H	-15.5422009	-0.9255988	0.6107784
C	-14.5225699	-0.5445333	0.5626683
C	-13.4973732	-1.5206930	0.8535270
C	-12.1748668	-1.3224092	0.8649903
H	-13.8645053	-2.5193874	1.0858442
H	-11.7112673	-0.3700474	0.6486816
O	-11.3060773	-2.3413335	1.1593133
C	-9.9435045	-1.9273778	1.1187995
H	-9.3183702	-2.7910736	1.3631546
H	-9.7529889	-1.1439897	1.8603268
H	-9.6726096	-1.5792662	0.1161669
