29
0 (energy)
C	-4.8772083	4.0926034	-2.3346288
C	-5.1621059	3.6448316	-1.1053154
H	-5.4971892	4.8452433	-2.8096498
H	-4.0218835	3.7189238	-2.8918062
H	-6.0141396	4.0165196	-0.5496280
C	-4.3173370	2.6187258	-0.4575513
O	-3.3293095	2.1047020	-0.9538300
O	-4.8425761	2.3612615	0.7659902
C	-4.1401416	1.3826967	1.5455184
C	-4.6380336	-0.0105401	1.2094558
H	-4.3471040	1.6034133	2.5978428
H	-3.0559216	1.4652738	1.4068182
H	-5.7213223	-0.0770514	1.3543248
H	-4.1507987	-0.7591757	1.8404792
H	-4.4412974	-0.2558044	0.1609961
C	-8.4915313	2.4433582	1.6365847
H	-8.1760480	3.4327493	1.9540590
H	-8.4813540	1.6623295	2.3878879
H	-8.8494651	3.0736428	-0.3214226
C	-8.8688653	2.2322575	0.3705798
C	-9.3126503	0.9839765	-0.2067976
C	-9.4301957	-0.1949347	0.4135429
H	-9.5745601	1.0319615	-1.2628508
H	-9.1958362	-0.3469061	1.4579027
O	-9.8661076	-1.3095071	-0.2552897
C	-9.9217716	-2.4620817	0.5802215
H	-10.2761735	-3.3027008	-0.0232945
H	-10.6256809	-2.3102548	1.4056402
H	-8.9273020	-2.7108123	0.9662279
