29
0 (energy)
C	-2.6584478	0.6570428	-1.7149847
C	-3.0629162	1.1703463	-0.5463092
H	-1.7141258	0.1291956	-1.7932231
H	-3.2590011	0.7522280	-2.6160614
H	-2.4651062	1.0760548	0.3518189
C	-4.3500030	1.8901282	-0.4393154
O	-5.1295067	2.0785299	-1.3577868
O	-4.4927161	2.2954391	0.8469872
C	-5.7006156	3.0133274	1.1373025
C	-5.5119721	4.4920269	0.8548056
H	-5.9122430	2.8661983	2.2014937
H	-6.5516723	2.6041980	0.5806112
H	-4.6599325	4.8855711	1.4187887
H	-6.4077299	5.0565228	1.1286780
H	-5.2999596	4.6656526	-0.2049265
C	-10.7675656	2.4832043	0.4821332
H	-11.1995414	3.4719209	0.3594514
H	-11.1987127	1.8532147	1.2514128
H	-9.3779072	2.7885496	-1.0458660
C	-9.7519264	2.0922457	-0.2959037
C	-9.0706386	0.8182526	-0.2597997
C	-9.3255311	-0.2098426	0.5566077
H	-8.2658524	0.7052533	-0.9848500
H	-10.1016193	-0.1975031	1.3090982
O	-8.5990744	-1.3704016	0.4859573
C	-9.0247788	-2.3411250	1.4378383
H	-8.4005236	-3.2313108	1.3180579
H	-10.0677735	-2.6262080	1.2624939
H	-8.8970544	-1.9662366	2.4591036
