29
0 (energy)
C	-2.0576267	2.0001262	-1.7149847
C	-2.6849670	2.1832093	-0.5463092
H	-0.9823037	2.1186470	-1.7932231
H	-2.6018514	1.7289362	-2.6160614
H	-2.1434947	2.4535341	0.3518189
C	-4.1508019	2.0219450	-0.4393154
O	-4.8948472	1.7227495	-1.3577868
O	-4.5023243	2.2690805	0.8469872
C	-5.9025870	2.1522516	1.1373025
C	-6.6075466	3.4657092	0.8548056
H	-5.9894652	1.9095887	2.2014937
H	-6.3579561	1.3250133	0.5806112
H	-6.1423283	4.2808291	1.4187887
H	-7.6646082	3.4052240	1.1286780
H	-6.5357390	3.7301687	-0.2049265
C	-9.7432848	0.1632192	1.8375856
H	-8.7596174	0.4834134	2.1678711
H	-10.5954913	0.6612743	2.2850797
H	-8.9534367	-1.2516527	0.5209819
C	-9.8626337	-0.8030562	0.9200995
C	-11.0903334	-1.3395478	0.3783937
C	-12.3378722	-0.9727245	0.6907378
H	-10.9616766	-2.1269420	-0.3629600
H	-12.5715513	-0.2027414	1.4126984
O	-13.4224858	-1.5666306	0.0986933
C	-14.6594582	-1.0363723	0.5659525
H	-15.4699968	-1.5585474	0.0493937
H	-14.7363934	0.0317177	0.3354740
H	-14.7727418	-1.2046991	1.6423682
