29
0 (energy)
C	-6.9790024	3.0266597	0.9910430
C	-5.7455903	3.3244728	0.5633987
H	-7.5726654	3.7580819	1.5286989
H	-7.4215448	2.0496038	0.8144601
H	-5.3039465	4.2976112	0.7390522
C	-4.9359582	2.3276288	-0.1693521
O	-5.2928424	1.1939416	-0.4415618
O	-3.7447608	2.9016230	-0.4706785
C	-2.8251492	2.0712098	-1.1941396
C	-2.0034180	1.2361541	-0.2300943
H	-2.1650889	2.7396116	-1.7567188
H	-3.3457238	1.4425908	-1.9258703
H	-1.4890793	1.8780736	0.4926230
H	-1.2586614	0.6430962	-0.7682985
H	-2.6417217	0.5574996	0.3444697
C	-9.7464789	-2.5267594	1.6413661
H	-9.5350432	-3.5454802	1.9523599
H	-10.4085883	-1.9492186	2.2758924
H	-8.5440739	-2.6870642	-0.0579551
C	-9.1993444	-2.0383443	0.5225240
C	-9.3787063	-0.7130587	-0.0251641
C	-10.1242180	0.2749040	0.4814061
H	-8.8388840	-0.5200965	-0.9511797
H	-10.6969747	0.1841082	1.3937727
O	-10.2085984	1.4929105	-0.1422670
C	-11.0506537	2.4069942	0.5541519
H	-11.0653249	3.3480361	-0.0032507
H	-10.6604549	2.6076765	1.5578088
H	-12.0756721	2.0250276	0.6113940
