29
0 (energy)
C	-3.2869186	4.0837612	-2.0502739
C	-3.5449595	2.8433900	-1.6169475
H	-2.6012693	4.2536529	-2.8733839
H	-3.7527862	4.9537089	-1.5943988
H	-3.0811229	1.9761872	-2.0705078
C	-4.4793785	2.6114221	-0.4948166
O	-5.0756940	3.4820868	0.1159713
O	-4.5418582	1.2743211	-0.2769282
C	-5.4149154	0.8622644	0.7845087
C	-4.6765800	0.8873797	2.1097156
H	-5.7314674	-0.1614214	0.5591244
H	-6.3206067	1.4788372	0.8184328
H	-3.7761831	0.2662991	2.0600219
H	-5.3157989	0.5185845	2.9168297
H	-4.3501656	1.9021284	2.3584443
C	-10.9732454	2.2237605	-0.4653045
H	-11.2767936	3.1346153	-0.9726667
H	-11.6014628	1.8859176	0.3506434
H	-9.2954565	1.9821265	-1.6842406
C	-9.8705666	1.5735249	-0.8538998
C	-9.3344232	0.3570536	-0.2870992
C	-9.8377187	-0.3483405	0.7315194
H	-8.4210786	-0.0064135	-0.7559711
H	-10.7379332	-0.0723596	1.2627025
O	-9.2262183	-1.4928351	1.1740432
C	-9.9166501	-2.0953347	2.2648703
H	-9.3696333	-2.9962162	2.5575440
H	-10.9297424	-2.3887995	1.9692724
H	-9.9500734	-1.4183618	3.1253518
