29
0 (energy)
C	-5.7970568	1.1194988	2.1115191
C	-5.8121366	1.7973485	0.9568893
H	-6.6882402	1.0476346	2.7256166
H	-4.8979010	0.6232664	2.4677998
H	-6.7075031	2.2921160	0.6013251
C	-4.5974639	1.8957090	0.1196191
O	-3.5174259	1.3958463	0.3848857
O	-4.9065731	2.6356113	-0.9740966
C	-3.8361301	2.8314524	-1.9092253
C	-3.0107765	4.0418773	-1.5147561
H	-4.2944383	3.0021395	-2.8888965
H	-3.2138525	1.9333497	-1.9973826
H	-3.6458718	4.9300184	-1.4323872
H	-2.2278971	4.2349237	-2.2535909
H	-2.5403089	3.8950418	-0.5373990
C	-8.3608362	0.9682417	-1.7628247
H	-7.7293254	1.2024270	-2.6146262
H	-9.2840625	1.5282327	-1.6699310
H	-7.0428138	-0.4885712	-1.0559436
C	-7.9876369	0.0274455	-0.8879888
C	-8.7094344	-0.3994797	0.2889811
C	-9.8852272	0.0638875	0.7263292
H	-8.2246225	-1.1846717	0.8674087
H	-10.4455992	0.8405791	0.2248909
O	-10.4647264	-0.4312764	1.8658999
C	-11.7113367	0.1920065	2.1610046
H	-12.1064011	-0.2551071	3.0777851
H	-12.4328748	0.0189762	1.3552136
H	-11.5783555	1.2658192	2.3315331
