29
0 (energy)
C	-3.9192599	2.4577519	2.6603582
C	-4.7270590	2.6193634	1.6047920
H	-4.1894332	2.8545380	3.6330120
H	-2.9738568	1.9277345	2.5769431
H	-5.6690304	3.1474015	1.6870566
C	-4.3590141	2.0788120	0.2787177
O	-3.3356822	1.4650180	0.0281986
O	-5.3538576	2.3929913	-0.5877671
C	-5.1651351	1.9376786	-1.9352617
C	-4.3653516	2.9565338	-2.7253400
H	-6.1604872	1.8277995	-2.3781350
H	-4.6912798	0.9495291	-1.9599903
H	-4.8520012	3.9368374	-2.6921391
H	-4.2663872	2.6466497	-3.7694768
H	-3.3639051	3.0836427	-2.3021668
C	-7.6156666	0.2604180	2.8599754
H	-7.1099083	0.0634795	3.8005275
H	-8.5744933	0.7624799	2.9161097
H	-6.0869589	-0.6123456	1.7372535
C	-7.0543356	-0.1120841	1.7041802
C	-7.5936720	0.0752145	0.3765694
C	-8.7540510	0.6553367	0.0518387
H	-6.9707294	-0.3049884	-0.4318462
H	-9.4422544	1.0637358	0.7786765
O	-9.1499973	0.7695411	-1.2557590
C	-10.4123680	1.4159324	-1.3906808
H	-10.6556584	1.4677921	-2.4558536
H	-10.3701177	2.4373679	-0.9973104
H	-11.1981063	0.8436245	-0.8857880
