29
0 (energy)
C	-6.5120722	3.7769772	-1.4790101
C	-5.7108045	2.7076829	-1.3926527
H	-7.1094810	3.9537001	-2.3669063
H	-6.5888981	4.4968630	-0.6681304
H	-5.6336102	1.9901037	-2.2001321
C	-4.8961384	2.4665629	-0.1825675
O	-4.8739350	3.1814918	0.8049014
O	-4.1905552	1.3250684	-0.3784263
C	-3.3402571	0.9311716	0.7080846
C	-1.9868051	1.6057240	0.5852435
H	-3.2174932	-0.1547967	0.6407205
H	-3.8070677	1.1425402	1.6771052
H	-1.5334567	1.3839346	-0.3864612
H	-1.3113241	1.2665918	1.3756603
H	-2.0828637	2.6941150	0.6508570
C	-6.5328542	-0.9645729	1.3247851
H	-5.6832845	-1.6047489	1.5430063
H	-7.0307302	-0.5070977	2.1717808
H	-6.3641692	-1.2691534	-0.7338416
C	-6.9207587	-0.7707167	0.0592169
C	-8.0231255	0.0454223	-0.3959969
C	-8.8632226	0.7605009	0.3598938
H	-8.1666894	0.0655790	-1.4754090
H	-8.8052121	0.8065918	1.4384194
O	-9.8739464	1.4965461	-0.2025142
C	-10.6557806	2.1847045	0.7694831
H	-11.4351619	2.7445705	0.2445186
H	-10.0402302	2.8958730	1.3309035
H	-11.1402686	1.4768658	1.4507125
