29
0 (energy)
C	-5.9735229	0.5707385	-1.9097328
C	-5.3111101	1.7065305	-1.6566249
H	-6.5509184	0.4551368	-2.8206328
H	-5.9540489	-0.2655907	-1.2155874
H	-5.3301326	2.5402402	-2.3476156
C	-4.5241026	1.8645617	-0.4149441
O	-4.4075216	1.0199912	0.4567329
O	-3.9720019	3.1031944	-0.4287995
C	-3.1617437	3.4303360	0.7092373
C	-4.0246956	3.9961867	1.8214739
H	-2.4409261	4.1867678	0.3818707
H	-2.5849495	2.5631271	1.0510659
H	-4.5927430	4.8616910	1.4648933
H	-3.4092092	4.3036898	2.6715693
H	-4.7541718	3.2570793	2.1674683
C	-9.1707991	1.7698719	2.6598465
H	-9.2407646	2.5020854	3.4587099
H	-9.1047096	0.7291165	2.9548488
H	-9.2387825	3.2340519	1.1729965
C	-9.1688576	2.1670724	1.3823721
C	-9.0825010	1.3249343	0.2111073
C	-8.9883105	-0.0087601	0.1818074
H	-9.0975064	1.8553038	-0.7400134
H	-8.9657167	-0.6260963	1.0689897
O	-8.9128653	-0.6898902	-1.0056259
C	-8.8182969	-2.0995688	-0.8226816
H	-8.7624694	-2.5675229	-1.8097860
H	-9.7054215	-2.4852701	-0.3087748
H	-7.9108634	-2.3594511	-0.2669268
