29
0 (energy)
C	-6.5638604	4.0412631	-0.9727116
C	-6.0695983	2.8106511	-0.7878420
H	-7.5017700	4.1907021	-1.4966215
H	-6.0448377	4.9233818	-0.6064526
H	-6.5860188	1.9313355	-1.1525552
C	-4.7910148	2.6065624	-0.0739107
O	-4.0957667	3.4932582	0.3920420
O	-4.5428158	1.2737027	-0.0407404
C	-3.3321272	0.8879243	0.6256497
C	-2.1659151	0.9241235	-0.3441865
H	-3.4781434	-0.1352022	0.9873502
H	-3.1426389	1.5156053	1.5041145
H	-2.3698519	0.2917622	-1.2145050
H	-1.2489075	0.5750287	0.1387976
H	-1.9986186	1.9385471	-0.7197980
C	-7.4972849	-0.1302139	1.3700474
H	-6.5209324	0.0093087	1.8244521
H	-7.5857258	-0.9210583	0.6343102
H	-8.3464135	1.4263462	2.4724399
C	-8.5216101	0.6541214	1.7240096
C	-9.8738604	0.5982296	1.2172453
C	-10.3571814	-0.2464879	0.3000081
H	-10.5561534	1.3329413	1.6424777
H	-9.7627450	-1.0105887	-0.1811388
O	-11.6689826	-0.1922402	-0.0947865
C	-11.9855401	-1.1736895	-1.0777180
H	-13.0423812	-1.0654623	-1.3381917
H	-11.8301978	-2.1835486	-0.6828648
H	-11.3903733	-1.0216706	-1.9846383
