29
0 (energy)
C	-4.4891292	5.1295672	-0.4049479
C	-3.8409488	3.9579336	-0.4011111
H	-3.9433982	6.0667043	-0.4259193
H	-5.5749167	5.1787159	-0.3872376
H	-2.7592298	3.9081374	-0.4186039
C	-4.5845128	2.6802759	-0.3723128
O	-5.7988784	2.5730441	-0.3493189
O	-3.6771209	1.6723781	-0.3722560
C	-4.2268570	0.3472344	-0.3509993
C	-4.4830908	-0.0907641	1.0788415
H	-3.4852970	-0.3141237	-0.8110321
H	-5.1365434	0.2827083	-0.9591906
H	-3.5654922	-0.0220150	1.6723157
H	-4.8469088	-1.1216616	1.1093476
H	-5.2233845	0.5554439	1.5610322
C	-13.9597878	-1.7830578	0.7825446
H	-14.9897055	-2.0800234	0.9566000
H	-13.4150494	-2.3300137	0.0218441
H	-14.0374422	-0.2874887	2.2373335
C	-13.4191819	-0.7851848	1.4908580
C	-12.0724202	-0.2726056	1.3812661
C	-11.1126203	-0.6975707	0.5526166
H	-11.8354700	0.5486003	2.0562647
H	-11.2471282	-1.5044680	-0.1541588
O	-9.8690668	-0.1203390	0.5501329
C	-8.9920354	-0.7144268	-0.4024852
H	-8.0276079	-0.2018054	-0.3427218
H	-9.3830258	-0.5944629	-1.4186501
H	-8.8328799	-1.7743193	-0.1763544
