29
0 (energy)
C	-5.3111429	-0.3303962	0.7258886
C	-5.5631949	0.9493005	0.4230291
H	-6.0672669	-0.9496337	1.1963241
H	-4.3478444	-0.7862729	0.5116550
H	-6.5225994	1.4042425	0.6362719
C	-4.5326673	1.7937834	-0.2180539
O	-3.4090299	1.4273134	-0.5178039
O	-5.0633722	3.0282948	-0.4012257
C	-4.1955684	3.9869245	-1.0230082
C	-3.3427431	4.6782557	0.0242231
H	-4.8359406	4.7228485	-1.5202758
H	-3.5777435	3.5213096	-1.7995936
H	-3.9739826	5.1390347	0.7911291
H	-2.7198171	5.4525453	-0.4323758
H	-2.6915095	3.9624061	0.5356735
C	-12.1788998	1.5519198	1.9477838
H	-12.6466065	2.4519721	2.3355604
H	-11.2821638	1.2107684	2.4518136
H	-13.6142577	1.3289241	0.4480544
C	-12.7100156	0.9181447	0.8961383
C	-12.2130304	-0.2826085	0.2639100
C	-11.1299393	-0.9869281	0.6093351
H	-12.7998505	-0.6339420	-0.5836479
H	-10.4825510	-0.7222015	1.4336622
O	-10.7669036	-2.1155772	-0.0791301
C	-9.5874209	-2.7197319	0.4437689
H	-9.3657824	-3.6074922	-0.1555897
H	-9.7393654	-3.0346197	1.4818509
H	-8.7354662	-2.0349564	0.3724006
