29
0 (energy)
C	-4.2846478	-0.2108478	1.2882517
C	-4.9658690	0.8687965	0.8842919
H	-4.6998641	-0.8848074	2.0297785
H	-3.3009875	-0.4447078	0.8890204
H	-5.9458505	1.1025416	1.2816601
C	-4.4001046	1.7878481	-0.1263419
O	-3.3128097	1.6603994	-0.6632382
O	-5.3005509	2.7803771	-0.3344303
C	-4.9157000	3.7703718	-1.2990380
C	-4.0990537	4.8616006	-0.6325160
H	-5.8386990	4.1974701	-1.7047422
H	-4.3735528	3.3200375	-2.1386005
H	-4.6543516	5.3019240	0.2021605
H	-3.8506788	5.6513698	-1.3470916
H	-3.1688201	4.4592182	-0.2191382
C	-7.3821397	-1.3886633	0.1672263
H	-6.4907049	-1.9296230	-0.1359584
H	-7.6256202	-1.4001239	1.2232338
H	-7.8065476	-0.7878299	-1.7867555
C	-8.1227521	-0.7488126	-0.7448029
C	-9.3286705	0.0110889	-0.5064215
C	-9.9321521	0.2186149	0.6688291
H	-9.7775964	0.4537797	-1.3944744
H	-9.5669617	-0.1767059	1.6064135
O	-11.0793166	0.9642131	0.7567198
C	-11.5641144	1.0668670	2.0923990
H	-12.4748249	1.6725648	2.0779282
H	-10.8300533	1.5646469	2.7352250
H	-11.8147436	0.0782840	2.4920568
