29
0 (energy)
C	-4.0662594	4.8923760	0.9452588
C	-4.8402529	3.9611867	0.3736836
H	-4.4202730	5.9101773	1.0687214
H	-3.0657771	4.6599001	1.3011433
H	-5.8370606	4.1920439	0.0187454
C	-4.3579464	2.5737216	0.2050216
O	-3.2636417	2.1620389	0.5510356
O	-5.3426059	1.8629838	-0.3987297
C	-5.0467758	0.4796732	-0.6387378
C	-4.3297898	0.3199557	-1.9662786
H	-6.0039163	-0.0511289	-0.6714039
H	-4.4669421	0.0468262	0.1846855
H	-4.9218378	0.7555515	-2.7778577
H	-4.1522018	-0.7364633	-2.1864724
H	-3.3676278	0.8417892	-1.9584410
C	-9.5550337	0.7026433	-0.9145832
H	-9.0090155	1.3530905	-1.5913379
H	-8.9941564	-0.0983619	-0.4472791
H	-11.3458606	1.7369754	-1.2013999
C	-10.8578271	0.9077510	-0.6901435
C	-11.7217834	0.1378526	0.1755070
C	-11.3837446	-0.9237848	0.9151872
H	-12.7560450	0.4768939	0.2142578
H	-10.3854133	-1.3374092	0.9461165
O	-12.3069275	-1.5672206	1.6983548
C	-11.7497002	-2.6708701	2.4062115
H	-12.5440591	-3.1277203	3.0035010
H	-10.9573964	-2.3372709	3.0850501
H	-11.3653807	-3.4247608	1.7106649
