29
0 (energy)
C	-3.1290590	1.5894523	2.3007161
C	-3.9493409	1.2874579	1.2864111
H	-3.0452946	0.9350337	3.1616504
H	-2.5253564	2.4934217	2.2939158
H	-4.5512199	0.3871211	1.2925061
C	-4.0639504	2.1793865	0.1127612
O	-3.4549002	3.2247349	-0.0389476
O	-4.9596711	1.6264512	-0.7423207
C	-5.1940493	2.3625564	-1.9514045
C	-6.2785458	3.4004496	-1.7309769
H	-5.5233300	1.6410991	-2.7063942
H	-4.2709152	2.8204735	-2.3252025
H	-7.1935319	2.9275117	-1.3594186
H	-6.5063018	3.9270909	-2.6620085
H	-5.9722419	4.1353125	-0.9797899
C	-14.0401933	-0.3204285	0.4341377
H	-15.1251136	-0.3004788	0.4761417
H	-13.5670698	0.3269447	-0.2949904
H	-13.9048599	-1.7374865	1.9614882
C	-13.3502742	-1.1177605	1.2575370
C	-11.9138150	-1.2599663	1.3273755
C	-11.0031330	-0.6227938	0.5836414
H	-11.5565151	-1.9681402	2.0736824
H	-11.2546981	0.0976282	-0.1821355
O	-9.6618887	-0.8512295	0.7524875
C	-8.8591736	-0.0767081	-0.1337238
H	-7.8096916	-0.3145706	0.0624440
H	-9.0079698	0.9941264	0.0424263
H	-9.0794798	-0.3271265	-1.1770807
