29
0 (energy)
C	-2.4894042	0.2551638	-0.7378205
C	-3.7587432	0.6377273	-0.5499337
H	-2.2327255	-0.7948849	-0.8272731
H	-1.6815208	0.9792626	-0.8061503
H	-4.5641537	-0.0830695	-0.4816135
C	-4.1089924	2.0689924	-0.4277384
O	-3.3170461	2.9945043	-0.4821434
O	-5.4499407	2.1534399	-0.2434986
C	-5.9717341	3.4832120	-0.1089423
C	-5.9005113	3.9298758	1.3392848
H	-7.0171601	3.4509160	-0.4329446
H	-5.4514070	4.1850253	-0.7709903
H	-6.4255168	3.2199778	1.9868490
H	-6.3499405	4.9192554	1.4625131
H	-4.8634792	3.9713978	1.6870889
C	-12.8976007	-0.8431466	0.4267671
H	-13.9639388	-0.9554662	0.2549482
H	-12.4423075	-1.5238386	1.1366490
H	-12.7436133	0.7441247	-0.9208328
C	-12.2078655	0.1009491	-0.2233572
C	-10.7942928	0.3784446	-0.1079294
C	-9.9089035	-0.2545513	0.6691632
H	-10.4327109	1.1957472	-0.7303621
H	-10.1667720	-1.0766918	1.3220765
O	-8.5876106	0.1109376	0.6843632
C	-7.8103458	-0.6837851	1.5753631
H	-6.7755987	-0.3320507	1.5300411
H	-7.8292723	-1.7367916	1.2742406
H	-8.1662609	-0.5738938	2.6054535
