29
0 (energy)
C	-7.0313738	3.3623340	0.4967742
C	-6.2191573	2.3208880	0.2763831
H	-8.1009572	3.2195976	0.6067994
H	-6.6477271	4.3766517	0.5718654
H	-6.6006223	1.3100715	0.2013066
C	-4.7611320	2.5150902	0.1261383
O	-4.1843153	3.5877681	0.1840672
O	-4.2007139	1.2987991	-0.0878373
C	-2.7754051	1.2965352	-0.2526325
C	-2.4155969	1.5460179	-1.7052989
H	-2.4200492	0.3058757	0.0494466
H	-2.2958286	2.0261141	0.4101727
H	-2.9007067	0.8089368	-2.3536083
H	-1.3334603	1.4876379	-1.8523224
H	-2.7598191	2.5325481	-2.0314838
C	-13.1262060	1.2544623	1.5078884
H	-13.8797846	1.9205816	1.9173010
H	-12.3216951	1.7133453	0.9450789
H	-14.0582614	-0.4443610	2.2853457
C	-13.2161348	-0.0653620	1.7071109
C	-12.3023691	-1.0795775	1.2328598
C	-11.1954960	-0.8918079	0.5061924
H	-12.5630988	-2.1003294	1.5089632
H	-10.8510292	0.0802355	0.1818757
O	-10.4116828	-1.9480556	0.1194035
C	-9.2816169	-1.5393832	-0.6458046
H	-8.7111890	-2.4333899	-0.9138285
H	-8.6326239	-0.8802467	-0.0591164
H	-9.5968209	-1.0425727	-1.5697437
