29
0 (energy)
C	-5.2411128	-0.4488656	0.3567811
C	-4.3141923	0.4694411	0.0561005
H	-5.0117492	-1.5077517	0.3053947
H	-6.2456867	-0.1647159	0.6596901
H	-3.3131871	0.1871483	-0.2458947
C	-4.6265389	1.9129451	0.1258269
O	-5.7039571	2.3852257	0.4465015
O	-3.5108713	2.5962974	-0.2312915
C	-3.6313143	4.0259469	-0.2150636
C	-4.1724188	4.5212051	-1.5431707
H	-2.6264335	4.4297976	-0.0536479
H	-4.2523667	4.3646845	0.6222777
H	-3.5409293	4.1760337	-2.3683998
H	-4.2124580	5.6139408	-1.5623869
H	-5.1785068	4.1313976	-1.7274651
C	-10.8193915	-2.4677648	2.3025763
H	-11.0061528	-3.3711226	2.8755329
H	-10.0670513	-1.7902401	2.6892420
H	-12.2426226	-2.9665085	0.8586803
C	-11.5029993	-2.2324570	1.1769549
C	-11.3741309	-1.0864402	0.3060052
C	-10.5486716	-0.0455142	0.4595015
H	-12.0300790	-1.0921938	-0.5633892
H	-9.8600092	0.0544137	1.2868258
O	-10.5261623	0.9831934	-0.4465238
C	-9.5808670	1.9927299	-0.1046785
H	-9.6237084	2.7721085	-0.8709724
H	-8.5648594	1.5837705	-0.0863384
H	-9.8284029	2.4460288	0.8612843
