29
0 (energy)
C	-7.1412231	2.0126370	0.8353515
C	-6.2325335	2.5901695	0.0393508
H	-8.1397323	2.4255315	0.9301436
H	-6.9090578	1.1181990	1.4078405
H	-6.4630208	3.4813658	-0.5312161
C	-4.8712527	2.0277461	-0.0899578
O	-4.4625162	1.0342105	0.4866986
O	-4.1780028	2.8135909	-0.9508123
C	-2.8242477	2.4096129	-1.2014446
C	-1.8983234	3.0034830	-0.1564921
H	-2.5545645	2.7915350	-2.1915670
H	-2.7346157	1.3178851	-1.2425087
H	-1.9985435	4.0934925	-0.1289177
H	-0.8566068	2.7500432	-0.3724517
H	-2.1473334	2.6353786	0.8438181
C	-11.2288020	-1.5269643	-1.8607860
H	-11.1220848	-1.9968950	-2.8339206
H	-11.0118762	-0.4666770	-1.8033419
H	-11.8101732	-3.3125893	-0.9482517
C	-11.6117613	-2.2511089	-0.8031141
C	-11.7995567	-1.7798737	0.5500988
C	-11.6265362	-0.5328683	1.0012224
H	-12.1164504	-2.5398258	1.2629794
H	-11.3143436	0.2913858	0.3752447
O	-11.8402970	-0.2175802	2.3182371
C	-11.6022975	1.1591398	2.5968116
H	-11.7932993	1.3287672	3.6603988
H	-12.2815530	1.7956713	2.0194942
H	-10.5600130	1.4234934	2.3880102
