29
0 (energy)
C	-7.0029518	3.2383725	-1.0656441
C	-6.1581837	2.8964642	-0.0846532
H	-8.0420508	3.4636013	-0.8510900
H	-6.6769028	3.3006497	-2.1007660
H	-6.4822850	2.8340628	0.9468342
C	-4.7417208	2.5891677	-0.3767622
O	-4.2297192	2.6144488	-1.4830742
O	-4.1350380	2.2766334	0.7951919
C	-2.7404887	1.9525906	0.7008715
C	-2.5650690	0.4769369	0.3949023
H	-2.2922035	2.1825209	1.6730384
H	-2.2345567	2.5791316	-0.0428144
H	-3.0743670	-0.1348128	1.1467687
H	-1.5052724	0.2074341	0.3793097
H	-3.0048110	0.2216873	-0.5744284
C	-13.1186805	-1.6088146	0.8651605
H	-14.1353566	-1.9353082	1.0626090
H	-12.4764968	-2.3025963	0.3352240
H	-13.4205406	0.2347757	1.7974819
C	-12.7099433	-0.4011639	1.2704097
C	-11.3989313	0.1786975	1.0873163
C	-10.3473656	-0.3806601	0.4792047
H	-11.2767253	1.1804140	1.4969225
H	-10.3661869	-1.3686449	0.0407543
O	-9.1522416	0.2826788	0.3729585
C	-8.1608299	-0.4816905	-0.3070769
H	-7.2435982	0.1126979	-0.3502177
H	-8.4760593	-0.7027863	-1.3325537
H	-7.9449233	-1.4086254	0.2351534
