29
0 (energy)
C	-4.3517510	5.0504939	-0.8619882
C	-4.3165780	3.7529206	-1.1905364
H	-4.1091723	5.8154635	-1.5916903
H	-4.6224579	5.3763915	0.1390973
H	-4.0468432	3.4274338	-2.1876339
C	-4.6469776	2.7098593	-0.1960590
O	-4.9666052	2.9176666	0.9621143
O	-4.5252158	1.5037846	-0.8041511
C	-4.8162240	0.3654137	0.0193134
C	-3.5739499	-0.0644492	0.7768859
H	-5.1361121	-0.4400565	-0.6498841
H	-5.6509164	0.5683206	0.7002738
H	-2.7506524	-0.2645640	0.0833005
H	-3.7697328	-0.9671898	1.3623535
H	-3.2344205	0.7249423	1.4549037
C	-11.1257482	-3.0825418	0.8167424
H	-11.4572364	-4.1120217	0.9142158
H	-10.0579878	-2.9188321	0.7292632
H	-13.0749277	-2.3391205	0.9015484
C	-12.0190734	-2.0867426	0.8085428
C	-11.7431135	-0.6733456	0.6874230
C	-10.5446930	-0.0935002	0.5607795
H	-12.6212144	-0.0292721	0.7034148
H	-9.6143150	-0.6434124	0.5343152
O	-10.4216286	1.2677982	0.4542450
C	-9.0657179	1.6863427	0.3280229
H	-9.0526132	2.7772191	0.2487154
H	-8.6131358	1.2700378	-0.5784623
H	-8.4861787	1.3986724	1.2118883
