29
0 (energy)
C	-6.4278628	3.8604481	-1.5089514
C	-5.9653113	2.6802219	-1.0776859
H	-7.2834895	3.9129447	-2.1735077
H	-5.9641230	4.7967896	-1.2091621
H	-6.4266871	1.7469305	-1.3760170
C	-4.7988598	2.6082510	-0.1719613
O	-4.1744998	3.5672090	0.2490913
O	-4.5589288	1.2998111	0.0919253
C	-3.4532530	1.0398412	0.9686034
C	-2.1632557	0.9564393	0.1743148
H	-3.6491815	0.0781229	1.4540371
H	-3.3874331	1.7931445	1.7621974
H	-2.2445226	0.1994167	-0.6126018
H	-1.3228084	0.7000713	0.8254428
H	-1.9443244	1.9079303	-0.3205197
C	-9.4617201	-0.5176791	3.0869536
H	-8.9810437	-0.5104444	4.0606641
H	-10.3372733	-1.1471317	2.9785015
H	-8.0858476	0.8317887	2.2837851
C	-8.9709505	0.2267553	2.0896193
C	-9.4898446	0.3277131	0.7446020
C	-10.5570719	-0.3026004	0.2424049
H	-8.9359973	0.9950925	0.0858112
H	-11.1721709	-0.9842330	0.8131389
O	-10.9444776	-0.1170197	-1.0595569
C	-12.1012681	-0.8758334	-1.3996201
H	-12.3443938	-0.6741868	-2.4468551
H	-12.9568044	-0.5772787	-0.7841702
H	-11.9080572	-1.9486151	-1.2916998
