29
0 (energy)
C	-2.1924501	2.5533830	1.5902253
C	-2.8147782	2.7803445	0.4265786
H	-1.1479806	2.8144442	1.7222051
H	-2.7101568	2.1035296	2.4335968
H	-2.2996544	3.2283532	-0.4141578
C	-4.2384765	2.4244205	0.2462255
O	-4.9494584	1.9143463	1.0953663
O	-4.5934791	2.7627266	-1.0181875
C	-5.9575348	2.4901573	-1.3699341
C	-6.0932003	1.0669724	-1.8779525
H	-6.2291859	3.1920851	-2.1651944
H	-6.6327153	2.6813086	-0.5278046
H	-5.4141250	0.8925752	-2.7190039
H	-7.1178273	0.8677028	-2.2042575
H	-5.8277840	0.3448794	-1.0993233
C	-10.6856957	2.1548388	1.3744904
H	-10.5485763	3.2207981	1.5298715
H	-11.2641107	1.6223520	2.1204527
H	-9.5845986	2.1676928	-0.3993720
C	-10.1526386	1.5578632	0.3024907
C	-10.2426557	0.1584452	-0.0468534
C	-10.8746689	-0.8037308	0.6337697
H	-9.7332036	-0.1202847	-0.9682196
H	-11.4087032	-0.6303507	1.5575952
O	-10.8831041	-2.1005282	0.1889402
C	-11.6084751	-2.9705783	1.0529167
H	-11.5683429	-3.9791878	0.6315271
H	-12.6587917	-2.6665731	1.1182746
H	-11.1546761	-2.9958027	2.0495450
