11
-0.00319001 (energy)
C	-0.5500597	-0.2962787	-1.2351615
H	-0.1384435	-1.1869246	-1.6949463
C	-1.4986843	0.4589261	-1.7898538
H	-1.9071046	0.1957640	-2.7606846
H	-1.8917556	1.3454600	-1.3059785
O	0.0236004	-0.0477082	-0.0221818
H	-0.3745558	0.7571642	0.3520414
C	3.3070457	0.1257838	0.0762240
H	3.3757918	-0.5510292	0.9427858
H	2.8956210	-0.3203894	-0.8432406
O	3.6641037	1.2959169	0.1313325
