11
-0.00294032 (energy)
C	-0.0105958	0.0048153	-0.0831410
H	0.1261620	-0.0573354	0.9899455
C	-0.7829519	-0.8244656	-0.7857544
H	-1.3227890	-1.6224889	-0.2854459
H	-0.9008577	-0.7381251	-1.8596381
O	0.7049905	1.0349606	-0.6206631
H	0.5527396	1.0525793	-1.5813401
C	4.0789599	0.3463706	-0.0617985
H	3.5613749	-0.1788425	-0.8803267
H	3.5174659	1.1731453	0.4018005
O	5.2033383	0.0321595	0.3080440
