11
-0.00278796 (energy)
C	-0.0914040	-1.3799993	0.0567266
H	-0.0437171	-1.8616847	-0.9126986
C	-0.2254629	-2.0361775	1.2097075
H	-0.2941346	-3.1196073	1.2158477
H	-0.2703343	-1.5271691	2.1654689
O	0.0027979	-0.0230445	-0.0527846
H	-0.0444042	0.3657334	0.8377291
C	3.3471580	0.2677728	0.0551700
H	3.1913215	0.2935712	-1.0351422
H	3.9721061	-0.5602823	0.4260076
O	2.8583616	1.1037031	0.8048617
