11
-0.00257102 (energy)
C	0.0036230	-1.3767682	0.3238104
H	-0.8407750	-2.0373801	0.1667622
C	0.0017039	-0.0786815	0.0190585
H	-0.8824157	0.3784503	-0.4144585
H	0.8621279	0.5583975	0.1875325
O	1.0636783	-2.0397856	0.8705129
H	1.7953869	-1.4105635	0.9932853
C	4.9248134	1.2687151	-0.4575703
H	5.5124638	0.9520394	0.4188513
H	5.5124611	1.5853938	-1.3340067
O	3.7001752	1.2687153	-0.4575714
