11
-0.00249808 (energy)
C	0.0594497	-0.0084707	-0.0586674
H	-0.7078574	0.1008587	0.6985426
C	0.5081595	-1.1834131	-0.5014724
H	0.1029525	-2.1077948	-0.1015978
H	1.2775287	-1.2622007	-1.2607129
O	0.5054583	1.2037775	-0.4988079
H	1.1900522	1.0576936	-1.1743683
C	4.4825490	-0.0557887	1.0628300
H	4.2856016	0.3326447	2.0747897
H	5.4863662	-0.4813241	0.9046324
O	3.6418157	-0.0171387	0.1732163
