11
-0.00248343 (energy)
C	-0.4185378	-0.6636084	1.1403599
H	0.2401591	-0.5306222	1.9903677
C	-1.5336148	-1.3941826	1.1681289
H	-1.8309696	-1.9010258	2.0809618
H	-2.1738210	-1.5094102	0.3012718
O	0.0367240	0.0087243	0.0435927
H	-0.5828371	-0.1384607	-0.6918470
C	3.8543440	0.0613156	-0.2686497
H	3.8534780	1.0362453	0.2444220
H	2.9731846	-0.5734992	-0.0833819
O	4.7733889	-0.2930911	-0.9963112
