11
-0.00410648 (energy)
C	-0.2420194	-1.3476582	-0.2030142
H	-0.7103059	-1.5694088	-1.1546520
C	0.0797825	-2.2714853	0.7030175
H	-0.1251228	-3.3198735	0.5094460
H	0.5479924	-2.0198998	1.6475104
O	-0.0248880	-0.0089988	-0.0512318
H	0.3949904	0.1428168	0.8130859
C	3.8439906	0.3862546	0.2270426
H	4.7156024	-0.2585598	0.0314953
H	3.4661233	0.9498987	-0.6408730
O	3.3295057	0.4708412	1.3351442
