11
-0.00230019 (energy)
C	-1.3286539	-0.3198610	-0.2198604
H	-2.0020866	0.0646885	0.5369025
C	-1.7217568	-1.0367588	-1.2731572
H	-2.7730136	-1.2686208	-1.4134169
H	-1.0246754	-1.4086876	-2.0149990
O	-0.0335758	0.0216115	0.0416016
H	0.5328726	-0.3429904	-0.6602478
C	3.7900279	0.1765788	-0.1018677
H	3.5958018	0.6793051	0.8590037
H	4.4192377	-0.7260934	-0.0467875
O	3.3367883	0.5933010	-1.1604778
