11
-0.00201451 (energy)
C	0.0373359	0.0746955	-0.0086309
H	-0.4445521	-0.8893868	0.1027669
C	-0.6210212	1.2265455	-0.1417253
H	-1.7065889	1.2372695	-0.1429646
H	-0.1117461	2.1768941	-0.2515394
O	1.3970466	-0.0402106	0.0046473
H	1.7859038	0.8456227	-0.0977268
C	5.0980499	-1.0559263	-1.2257230
H	5.2773954	-1.2749324	-2.2904309
H	4.0476173	-1.1160047	-0.8990154
O	6.0056956	-0.7651265	-0.4567278
