11
-0.0019685 (energy)
C	-1.3374942	-0.3041527	-0.1859332
H	-2.0154078	0.4170512	0.2549502
C	-1.7332126	-1.3905447	-0.8500612
H	-2.7914642	-1.5972201	-0.9764049
H	-1.0314935	-2.0952396	-1.2808488
O	-0.0337991	0.0398618	0.0243669
H	0.5364162	-0.6326354	-0.3867206
C	3.6856371	1.3050397	-0.5631108
H	4.3791517	2.0851391	-0.9155503
H	2.6185498	1.4931415	-0.7623551
O	4.0748773	0.2961858	0.0117325
