11
-0.0018867 (energy)
C	-0.0810602	-0.0012661	-0.0218064
H	0.9651702	0.0150753	0.2596450
C	-0.9395715	-0.9499233	0.3535792
H	-0.6051403	-1.7714470	0.9795413
H	-1.9817632	-0.9402462	0.0563830
O	-0.4059163	1.0676278	-0.8054692
H	-1.3501238	1.0120081	-1.0329986
C	4.4750192	-0.2495216	-1.1689473
H	4.2862371	0.3898956	-2.0460096
H	5.1774060	-1.0826534	-1.3311204
O	3.9398627	-0.0476863	-0.0860766
