11
-0.00180396 (energy)
C	-0.0771639	-0.0301959	-0.0134839
H	0.9187779	0.3595376	0.1605500
C	-0.5395683	-1.1607087	0.5213336
H	0.0924632	-1.7527835	1.1759765
H	-1.5415134	-1.5264390	0.3291620
O	-0.7938782	0.7797457	-0.8456546
H	-1.6771953	0.3925854	-0.9731257
C	4.7443647	0.4085311	0.9499596
H	4.5474174	1.1928365	1.6981629
H	5.7481820	-0.0437605	0.9891909
O	3.9036315	0.0625664	0.1294629
