11
-0.00151469 (energy)
C	-1.0867832	-0.6561658	0.6234627
H	-1.8849832	-1.1513169	0.0832939
C	-0.0616196	-0.0371804	0.0371154
H	0.0104674	-0.0074537	-1.0457020
H	0.7232271	0.4501543	0.6037752
O	-1.2640281	-0.7466416	1.9734966
H	-0.5274785	-0.2904961	2.4160086
C	3.4670604	-1.2362945	-0.2233565
H	3.3855373	-1.7638506	-1.1870836
H	3.4353199	-1.8766019	0.6726094
O	3.5850818	-0.0194040	-0.1527341
