11
-0.00148909 (energy)
C	-1.1048376	-0.7533804	-0.4605529
H	-1.0161639	-1.6747691	-1.0238111
C	-0.0642356	-0.0420647	-0.0257150
H	0.9483103	-0.3761512	-0.2299470
H	-0.1834678	0.8770083	0.5361313
O	-2.4108753	-0.4158962	-0.2542448
H	-2.4422577	0.4136825	0.2529094
C	4.8976776	-0.2237750	0.7586719
H	5.6755706	0.5243492	0.9798596
H	5.0796245	-1.2319610	1.1639028
O	3.8975360	0.0471896	0.1059591
