11
-0.00406964 (energy)
C	0.1563708	-1.2334852	0.6741065
H	-0.6168380	-1.9898258	0.7387381
C	0.0104371	-0.0702020	0.0389829
H	-0.9265945	0.1677257	-0.4549159
H	0.8023223	0.6681573	-0.0092465
O	1.2926165	-1.6217765	1.3224648
H	1.9563376	-0.9154856	1.2386881
C	5.2284753	0.6108891	-0.8376692
H	5.7008592	-0.0931144	-1.5412059
H	5.8182141	1.5100560	-0.5979554
O	4.1217634	0.4075478	-0.3543680
