11
-0.00387521 (energy)
C	-0.4128262	0.8480633	-1.0130814
H	-0.8533377	1.7720286	-0.6576694
C	-0.2717203	0.5365310	-2.3018573
H	-0.6073330	1.2267139	-3.0697020
H	0.1732044	-0.3962661	-2.6282228
O	-0.0229933	0.0482707	0.0215949
H	0.3649195	-0.7660907	-0.3427267
C	4.0344746	-0.4435666	0.3894606
H	3.8331407	0.5520111	-0.0371787
H	5.0057268	-0.5548728	0.8974330
O	3.2322437	-1.3649699	0.3047235
