11
-0.00327446 (energy)
C	-1.2271157	0.4617784	0.4437550
H	-1.7435667	1.0891433	-0.2730238
C	-1.7102836	0.1507083	1.6469552
H	-2.6771060	0.5313425	1.9615120
H	-1.1706527	-0.4798870	2.3438990
O	-0.0252789	0.0330320	-0.0399368
H	0.4011941	-0.5242423	0.6338266
C	3.6099068	-0.1568954	0.0426850
H	3.0401372	0.7856122	0.0704927
H	4.1986506	-0.3289725	-0.8724795
O	3.5901482	-0.9596782	0.9672867
