11
-0.0032743 (energy)
C	-0.0344504	0.0730450	0.0229232
H	0.4101951	-0.8697348	-0.2729425
C	-1.0836605	0.6264079	-0.5860548
H	-1.5464803	0.1303384	-1.4335728
H	-1.5075944	1.5716637	-0.2676930
O	0.6133357	0.6187084	1.0928847
H	0.1821588	1.4599420	1.3226747
C	3.6408307	-0.0504040	1.3065490
H	3.9379944	0.8210441	1.9115309
H	3.1145140	-0.8498815	1.8520601
O	3.8795942	-0.1254099	0.1077558
