11
-0.00325178 (energy)
C	-0.0174351	0.3564201	1.3373973
H	-0.0188795	-0.4888740	2.0153028
C	-0.0310090	1.6296792	1.7330403
H	-0.0445172	1.8718648	2.7912167
H	-0.0291638	2.4556235	1.0313314
O	-0.0000380	-0.0467196	0.0337989
H	0.0006030	0.7414739	-0.5364130
C	3.5586913	-0.0348712	-0.4006078
H	2.9562586	-0.1655090	0.5124858
H	4.5945697	-0.4055472	-0.3430652
O	3.1070629	0.4874841	-1.4120007
