#n B3LYP/6-31G(d) SP geom=connectivity

 Title

0 1
C	0.0000000	0.0000000	0.0000000
H	-1.0835497	0.0000000	0.0000000
C	0.7457434	1.1053385	0.0000000
H	0.2726269	2.0824438	0.0000001
H	1.8290908	1.0746607	-0.0000031
O	0.5011032	-1.2692866	0.0000007
H	1.4727300	-1.2209926	-0.0000169
C	2.3186515	-4.7119289	-0.3114704
H	2.7222815	-5.7303423	-0.4282964
H	1.3145828	-4.5477640	-0.7341428
O	2.9442837	-3.8218083	0.2506760
C	0.7772884	-2.4308668	3.0897190
H	0.3938547	-3.1814894	2.3802999
H	0.1430454	-2.2425981	3.9706541
O	1.8376871	-1.8448981	2.9110181
C	2.4984344	-1.5927215	3.3328582
H	2.5714222	-1.0095688	4.2647043
H	1.6882243	-2.3386091	3.3017596
O	3.2665968	-1.4231649	2.3942870
C	4.9969826	-1.2312641	-2.2198152
H	4.8846257	-1.5544863	-3.2670185
H	6.0311525	-1.1982879	-1.8414491
O	4.0364811	-0.9288276	-1.5228877
C	-1.6038807	-2.8716870	-1.6728212
H	-1.7488432	-3.2986561	-0.6676275
H	-0.8816538	-3.4016355	-2.3141471
O	-2.2053732	-1.8745992	-2.0519803
C	2.4493831	-2.3560650	3.4443282
H	1.6585228	-1.6313481	3.6954395
H	2.7725352	-3.0110013	4.2691839
O	2.9367343	-2.4287889	2.3231953
C	4.8279819	-0.9837365	-2.0359583
H	5.5487587	-0.5299841	-2.7347578
H	5.2109111	-1.8279444	-1.4406145
O	3.6779389	-0.5768996	-1.9281461
C	2.3983587	-3.9949492	-1.4928690
H	1.5994823	-3.4418846	-2.0121448
H	2.1732117	-5.0481634	-1.2609112
O	3.4653777	-3.4738175	-1.1934844
C	-1.2651025	-3.4041266	-1.4078580
H	-0.4636214	-4.1239786	-1.6384490
H	-1.5957831	-3.3822199	-0.3571790
O	-1.7556762	-2.6768721	-2.2623622
C	0.7868698	-1.6476310	3.5536740
H	0.1128918	-1.0091700	2.9605024
H	0.4630799	-1.8482908	4.5874301
O	1.8265270	-2.1038209	3.0946069
C	1.5116967	-4.6512790	-1.6155043
H	0.7578157	-4.0510753	-1.0815096
H	1.1218159	-5.5213105	-2.1675857
O	2.7034778	-4.3701351	-1.5966699
C	-0.5618417	-3.3009139	-2.3586929
H	-0.7765673	-4.1123320	-1.6450930
H	-1.1624502	-2.3860310	-2.2321435
O	0.2877191	-3.4087059	-3.2341162
C	2.9019639	-4.0834412	-0.9113697
H	2.4352111	-4.8248607	-1.5793294
H	2.8655643	-4.3232150	0.1633114
O	3.4262452	-3.0610529	-1.3351504
C	-0.5176992	-2.7781206	-2.9758385
H	0.3281253	-2.0727711	-3.0040245
H	-0.8585313	-3.0708026	-1.9698929
O	-1.0439038	-3.2081191	-3.9946363
C	0.5797838	-1.7880193	3.3174842
H	-0.3773647	-2.2759775	3.0735687
H	0.5159524	-0.9423577	4.0207181
O	1.6436340	-2.1607294	2.8388936
C	-0.4523389	-4.2117173	-1.7084113
H	-1.1084841	-3.5207597	-1.1554352
H	-0.9679003	-4.9559600	-2.3361492
O	0.7685587	-4.1562062	-1.6305231
C	5.3346571	-0.2854657	-1.8130625
H	5.7265648	-1.1644310	-1.2768165
H	5.8586455	-0.0264651	-2.7469312
O	4.3803105	0.3605343	-1.3987616
C	2.3532283	-0.1910960	-3.9050739
H	1.4673877	-0.4916827	-4.4870235
H	3.2175618	0.1489643	-4.4975621
O	2.3756528	-0.2322186	-2.6813317
C	-1.5811636	-3.7582943	-2.0355558
H	-2.1027794	-4.0369906	-1.1060525
H	-1.1129253	-2.7610441	-2.0365355
O	-1.5255342	-4.5070035	-3.0030675
C	0.5886048	-1.3868486	3.4724641
H	0.2509812	-0.4773778	2.9503488
H	0.4758387	-2.3270844	2.9094397
O	1.0579067	-1.3548084	4.6031577
C	2.1130870	-4.0110470	-1.4209779
H	2.1633082	-4.1192784	-0.3257632
H	1.2272524	-4.4557465	-1.9019097
O	2.9837708	-3.4349046	-2.0610625
C	2.9226991	-4.2266970	-0.2326825
H	1.9524869	-4.7447336	-0.2963825
H	3.5956446	-4.3715224	-1.0928719
O	3.2324588	-3.5360018	0.7299847
C	1.2123686	0.3326332	3.5321819
H	1.0293053	-0.5388107	2.8834872
H	0.4258730	0.5462750	4.2734899
O	2.2226265	1.0180586	3.4356944
C	1.3698185	-4.9700688	-1.3388271
H	1.3641802	-5.1731055	-2.4216363
H	0.8156160	-4.0724540	-1.0211747
O	1.9531550	-5.6937979	-0.5415357
C	2.2250799	-4.6545053	1.1611251
H	2.2831456	-5.4969326	1.8687095
H	1.5133366	-3.8574504	1.4292312
O	2.9061947	-4.6072122	0.1444713
C	-1.5664489	-2.9451597	-2.6254333
H	-1.1373732	-3.1744199	-1.6369674
H	-2.6035108	-3.2821401	-2.7826051
O	-0.9329530	-2.3551466	-3.4916355
C	-4.0974469	-0.9507604	-2.1077017
H	-3.6969936	-1.9209503	-2.4425152
H	-4.7209531	-0.4156774	-2.8416513
O	-3.8650411	-0.4973749	-0.9940733
C	-4.7442401	1.2012341	-0.6458055
H	-4.9654896	0.9927456	0.4131149
H	-5.5105159	1.7798611	-1.1859612
O	-3.7152614	0.8155659	-1.1863622
C	2.6673453	2.5482856	-2.8605337
H	1.8857781	3.2157767	-3.2571944
H	2.7980164	1.5968353	-3.4003702
O	3.3455766	2.8441522	-1.8847241
C	0.5929086	6.0714016	-0.7640170
H	1.2803901	6.9083628	-0.5625313
H	-0.0686351	6.1996406	-1.6356077
O	0.5658716	5.0656738	-0.0657909

1  2  1.0  3  1.0  6  1.0  
2  
3  4  1.0  5  1.0  
4  
5  
6  7  1.0  
7  
8  9  1.0  10  1.0  11  1.0  
9  
10  
11  
12  13  1.0  14  1.0  15  1.0  
13  
14  
15  
16  17  1.0  18  1.0  19  1.0  
17  
18  
19  
20  21  1.0  22  1.0  23  1.0  
21  
22  
23  
24  25  1.0  26  1.0  27  1.0  
25  
26  
27  
28  29  1.0  30  1.0  31  1.0  
29  
30  
31  
32  33  1.0  34  1.0  35  1.0  
33  
34  
35  
36  37  1.0  38  1.0  39  1.0  
37  
38  
39  
40  41  1.0  42  1.0  43  1.0  
41  
42  
43  
44  45  1.0  46  1.0  47  1.0  
45  
46  
47  
48  49  1.0  50  1.0  51  1.0  
49  
50  
51  
52  53  1.0  54  1.0  55  1.0  
53  
54  
55  
56  57  1.0  58  1.0  59  1.0  
57  
58  
59  
60  61  1.0  62  1.0  63  1.0  
61  
62  
63  
64  65  1.0  66  1.0  67  1.0  
65  
66  
67  
68  69  1.0  70  1.0  71  1.0  
69  
70  
71  
72  73  1.0  74  1.0  75  1.0  
73  
74  
75  
76  77  1.0  78  1.0  79  1.0  
77  
78  
79  
80  81  1.0  82  1.0  83  1.0  
81  
82  
83  
84  85  1.0  86  1.0  87  1.0  
85  
86  
87  
88  89  1.0  90  1.0  91  1.0  
89  
90  
91  
92  93  1.0  94  1.0  95  1.0  
93  
94  
95  
96  97  1.0  98  1.0  99  1.0  
97  
98  
99  
100  101  1.0  102  1.0  103  1.0  
101  
102  
103  
104  105  1.0  106  1.0  107  1.0  
105  
106  
107  
108  109  1.0  110  1.0  111  1.0  
109  
110  
111  
112  113  1.0  114  1.0  115  1.0  
113  
114  
115  
116  117  1.0  118  1.0  119  1.0  
117  
118  
119  
120  121  1.0  122  1.0  123  1.0  
121  
122  
123  
124  125  1.0  126  1.0  127  1.0  
125  
126  
127  
