29
-0.00239148 (energy)
C	-0.7695226	2.3293532	0.9538355
C	-1.0825066	1.6332029	-0.1462978
H	-1.2224840	3.2956226	1.1478398
H	-0.0567332	1.9512818	1.6822975
H	-1.7924370	2.0092472	-0.8725838
C	-0.4651013	0.3160989	-0.4112013
O	0.3489370	-0.2371496	0.3084991
O	-0.9635234	-0.1470393	-1.5843580
C	-0.4732290	-1.4299947	-1.9994537
C	0.8131896	-1.2692491	-2.7876361
H	-1.2429559	-1.8751446	-2.6384357
H	-0.3378285	-2.1014960	-1.1436837
H	0.6611546	-0.5975662	-3.6389015
H	1.1637945	-2.2362673	-3.1591138
H	1.6002013	-0.8263493	-2.1691058
C	3.4208952	-4.4183903	-2.3070089
H	3.2130775	-5.2342300	-2.9928892
H	3.1658795	-4.5778915	-1.2658114
H	4.1920648	-3.2056163	-3.8214871
C	3.9664296	-3.2833217	-2.7583674
C	4.3025883	-2.1121882	-1.9812198
C	4.1325227	-1.9409612	-0.6658377
H	4.7406598	-1.2924642	-2.5489288
H	3.7072278	-2.6923212	-0.0152308
O	4.4967943	-0.7723272	-0.0484005
C	4.2347330	-0.7886041	1.3518368
H	4.5509101	0.1722476	1.7680925
H	4.8064634	-1.5820940	1.8451460
H	3.1636644	-0.9116965	1.5454811
