29
-0.00176375 (energy)
C	3.4701035	2.3427914	-2.9271909
C	2.3284772	2.3510731	-2.2275493
H	3.6805596	3.1172799	-3.6568236
H	4.2169582	1.5653947	-2.7874554
H	1.5838530	3.1251454	-2.3662893
C	2.0411484	1.2953844	-1.2330195
O	2.7771507	0.3605608	-0.9663426
O	0.8269439	1.5577617	-0.6888840
C	0.3848331	0.6281626	0.3106415
C	-0.3316054	-0.5399572	-0.3406303
H	-0.3089740	1.1671114	0.9641718
H	1.2182717	0.2887426	0.9365519
H	-1.1613636	-0.1848043	-0.9605440
H	-0.7242623	-1.2248052	0.4162367
H	0.3425551	-1.0964910	-0.9993451
C	7.6759016	2.7885374	-3.6404880
H	7.9303793	3.5758925	-4.3437145
H	7.4066675	1.8262812	-4.0601804
H	7.9853819	4.0247385	-1.9866450
C	7.7033480	3.0280305	-2.3245842
C	7.3943451	2.0947852	-1.2652989
C	7.0229976	0.8170140	-1.3989878
H	7.4797789	2.4973324	-0.2569317
H	6.9093393	0.3243443	-2.3545323
O	6.7575511	0.0358643	-0.3040123
C	6.3788757	-1.2912460	-0.6575496
H	6.1854326	-1.8467027	0.2646871
H	7.1867976	-1.7947578	-1.1993924
H	5.4612769	-1.2873891	-1.2557430
