29
-0.00166253 (energy)
C	3.5340036	-2.2967393	-2.8869610
C	3.1759661	-1.3772348	-1.9818653
H	4.4771325	-2.2174721	-3.4167842
H	2.8956890	-3.1457408	-3.1180771
H	3.8112852	-0.5310403	-1.7511568
C	1.8903265	-1.4848361	-1.2595921
O	1.0709435	-2.3751798	-1.4099606
O	1.7969657	-0.4246458	-0.4190575
C	0.6024976	-0.3692538	0.3739402
C	-0.5015884	0.3367859	-0.3905499
H	0.8449488	0.1985569	1.2782323
H	0.2906374	-1.3694895	0.6962156
H	-0.1753330	1.3339405	-0.7038635
H	-1.3984413	0.4366435	0.2272908
H	-0.7633201	-0.2130619	-1.3001055
C	0.5217306	7.6720562	1.6141332
H	0.0783486	8.6227163	1.8949752
H	1.1445752	7.1850042	2.3553557
H	-0.3489916	7.7097417	-0.2831254
C	0.2900265	7.1541973	0.4025853
C	0.8012726	5.9082935	-0.1216914
C	1.6015267	5.0380695	0.5034282
H	0.4879969	5.6727180	-1.1378164
H	1.9673047	5.1794272	1.5108663
O	2.0162652	3.8853172	-0.1120246
C	2.8610097	3.0947450	0.7192442
H	3.1468285	2.1992831	0.1598442
H	2.3310805	2.7801338	1.6248106
H	3.7727142	3.6428943	0.9803287
