29
-0.00163307 (energy)
C	0.9532789	-0.3458939	2.4288826
C	0.6847079	-1.1785094	1.4152265
H	1.3522600	-0.7206444	3.3652928
H	0.7812896	0.7242877	2.3464523
H	0.8556508	-2.2448373	1.4966209
C	0.1406317	-0.6680668	0.1386861
O	-0.1055073	0.5012095	-0.1040477
O	-0.0323456	-1.7266941	-0.6911363
C	-0.5537412	-1.4133324	-1.9906049
C	-2.0703739	-1.3908180	-1.9550864
H	-0.2133649	-2.2013506	-2.6703896
H	-0.1474271	-0.4670345	-2.3661297
H	-2.4603371	-2.3425638	-1.5795415
H	-2.4790342	-1.2111095	-2.9534577
H	-2.4360483	-0.6089891	-1.2819199
C	5.4957343	-1.3175017	-4.4892241
H	5.8566778	-1.7946678	-5.3954507
H	4.9886968	-0.3667724	-4.6058119
H	6.2045604	-2.8592009	-3.2727140
C	5.6843565	-1.9022429	-3.3008587
C	5.2681668	-1.4015347	-2.0106678
C	4.6167057	-0.2607990	-1.7600851
H	5.5231939	-2.0385683	-1.1649156
H	4.3189382	0.4388034	-2.5285887
O	4.2790798	0.0984422	-0.4807952
C	3.5914006	1.3449169	-0.4259900
H	3.3587241	1.5590928	0.6211314
H	2.6502702	1.2945621	-0.9841958
H	4.2217254	2.1539079	-0.8107781
