29
-0.00147911 (energy)
C	0.0374883	0.6094829	-0.1318063
C	0.0236526	-0.6918618	0.1831352
H	-0.7926925	1.0615515	-0.6637103
H	0.8749304	1.2497880	0.1334553
H	-0.8102331	-1.3304674	-0.0809091
C	1.1552208	-1.3084992	0.9080061
O	2.1613787	-0.7231249	1.2709032
O	0.8680151	-2.6220960	1.0846252
C	1.8643255	-3.3831318	1.7823772
C	2.9056453	-3.9009509	0.8079751
H	1.3500979	-4.2269580	2.2540372
H	2.3240813	-2.7966640	2.5862863
H	2.4311620	-4.4852553	0.0127523
H	3.6371636	-4.5315826	1.3210330
H	3.4354206	-3.0747717	0.3233169
C	5.2782178	1.8448240	-0.3705610
H	4.5046970	1.3771893	-0.9723896
H	6.0965911	2.3137021	-0.9044003
H	4.3375116	1.3319008	1.4214071
C	5.1947921	1.8253315	0.9644945
C	6.1340500	2.3977295	1.9018687
C	7.2628115	3.0543388	1.6133678
H	5.8743634	2.2684030	2.9516235
H	7.6082904	3.2349716	0.6050409
O	8.0696738	3.5501661	2.6047085
C	9.2207094	4.2149032	2.0920222
H	9.8087071	4.5789984	2.9394691
H	8.9318201	5.0753060	1.4787477
H	9.8429992	3.5239849	1.5130359
