29
-0.00147746 (energy)
C	1.4507773	2.1865980	-0.2046664
C	0.2093761	1.8630018	-0.5881847
H	1.8530500	3.1748222	-0.3998013
H	2.0904437	1.4745847	0.3106274
H	-0.4284695	2.5717546	-1.1017255
C	-0.3392498	0.5159404	-0.3225514
O	0.2545183	-0.3870784	0.2419906
O	-1.6003813	0.4764258	-0.8197477
C	-2.2940512	-0.7672594	-0.6444283
C	-1.9782595	-1.7094056	-1.7909794
H	-3.3648413	-0.5385030	-0.6405524
H	-2.0588999	-1.2222543	0.3247327
H	-2.2197734	-1.2413135	-2.7509201
H	-2.5480102	-2.6382487	-1.6978213
H	-0.9117812	-1.9546475	-1.8156337
C	7.4514764	-2.3107584	-3.7666141
H	8.0497359	-2.6156709	-4.6200356
H	6.8185267	-3.0673848	-3.3177745
H	8.1790415	-0.3546518	-3.8254684
C	7.5160000	-1.0529268	-3.3156048
C	6.7895556	-0.4922088	-2.1991870
C	5.9165442	-1.1229394	-1.4064063
H	6.9904036	0.5595418	-2.0001185
H	5.6493423	-2.1642175	-1.5206430
O	5.2924976	-0.4696844	-0.3751684
C	4.4022589	-1.3143036	0.3485021
H	3.9474875	-0.7229906	1.1485051
H	4.9437273	-2.1504932	0.8039740
H	3.6029338	-1.6850738	-0.3022257
