29
-0.00144972 (energy)
C	0.5519879	-0.2770780	-0.0937275
C	-0.5951630	0.3811805	0.1151223
H	0.5540673	-1.3462332	-0.2764593
H	1.5107862	0.2350955	-0.0868266
H	-1.5507745	-0.1283929	0.1085409
C	-0.5983790	1.8385577	0.3644565
O	0.3924469	2.5480983	0.4035381
O	-1.8858911	2.2260663	0.5415652
C	-2.0801865	3.6254068	0.7920909
C	-1.9513317	3.9148132	2.2758643
H	-3.0922625	3.8731169	0.4555229
H	-1.3867214	4.2364441	0.2027445
H	-2.6507967	3.2983354	2.8499977
H	-2.1560471	4.9686398	2.4846343
H	-0.9459737	3.6759775	2.6368907
C	1.9680555	2.4275258	4.0757346
H	1.2655177	3.0880853	4.5750504
H	1.8993028	2.3668040	2.9958495
H	2.8644986	1.8549520	5.8723194
C	2.8634479	1.7355702	4.7893052
C	3.8598303	0.8208504	4.2803605
C	4.0756497	0.4929720	3.0019283
H	4.4923551	0.3601873	5.0378891
H	3.5034786	0.8941758	2.1770873
O	5.0606807	-0.3942627	2.6524193
C	5.1291895	-0.6094987	1.2457973
H	5.9337479	-1.3242181	1.0500044
H	5.3621854	0.3231535	0.7206987
H	4.1919841	-1.0354778	0.8715973
