29
-0.00126941 (energy)
C	1.4350889	3.0437610	-1.1351744
C	1.0758888	1.9832157	-0.4009425
H	2.0829193	3.8105953	-0.7243592
H	1.0914755	3.1693015	-2.1588116
H	1.4176896	1.8574970	0.6189932
C	0.1926445	0.9378120	-0.9605284
O	-0.2727178	0.9388264	-2.0875368
O	0.0000000	0.0000000	0.0000000
C	-0.8370738	-1.1036022	-0.3742154
C	-2.2941107	-0.7660192	-0.1192165
H	-0.5421306	-1.9544150	0.2487308
H	-0.6698430	-1.3956024	-1.4174601
H	-2.4447675	-0.4781018	0.9264084
H	-2.9359064	-1.6220827	-0.3457059
H	-2.6139764	0.0824002	-0.7324030
C	5.3804501	3.2897005	-3.7509858
H	5.4962585	4.0692353	-4.4980656
H	4.5476216	2.6083413	-3.8802614
H	7.0527884	3.9285836	-2.6766112
C	6.2424457	3.2023000	-2.7316538
C	6.2271871	2.2304347	-1.6621866
C	5.3502215	1.2358031	-1.4886633
H	7.0256657	2.3388133	-0.9294973
H	4.5235330	1.0440667	-2.1583874
O	5.4500381	0.3781355	-0.4237357
C	4.4231848	-0.6093613	-0.4184505
H	4.5717833	-1.2496951	0.4558285
H	4.4801813	-1.2342842	-1.3162693
H	3.4354013	-0.1426350	-0.3391525
