29
-0.00126816 (energy)
C	-0.1674069	-0.1276746	0.5881512
C	0.2533986	0.1068579	-0.6611666
H	-1.1127129	0.2708712	0.9403526
H	0.4204995	-0.7205235	1.2842546
H	-0.3316750	0.6975135	-1.3552248
C	1.5420310	-0.4360729	-1.1415607
O	2.3096957	-1.1151459	-0.4810594
O	1.7052195	-0.0394954	-2.4281507
C	2.9127040	-0.4846197	-3.0625900
C	4.0417703	0.4891621	-2.7816955
H	2.7149289	-0.5179401	-4.1390242
H	3.1747961	-1.5027057	-2.7521093
H	3.7652736	1.5001702	-3.0984562
H	4.9518853	0.1903411	-3.3093700
H	4.2596882	0.5395693	-1.7102020
C	5.0654308	-3.6252908	2.2585116
H	5.2395536	-2.5680809	2.4351547
H	5.8472024	-4.3083269	2.5697360
H	3.1943995	-3.2785168	1.3993507
C	3.9289112	-4.0320863	1.6818368
C	3.5469902	-5.3926756	1.3794331
C	4.2557195	-6.5013652	1.6181404
H	2.5724171	-5.5034464	0.9060574
H	5.2318769	-6.4984308	2.0826996
O	3.7740598	-7.7394012	1.2791732
C	4.6770821	-8.7886848	1.6155660
H	4.2229108	-9.7374055	1.3153489
H	4.8533142	-8.8183768	2.6962678
H	5.6237576	-8.6746251	1.0764614
