29
-0.00124025 (energy)
C	2.2793294	1.5475894	2.2410281
C	1.6772224	0.7028642	1.3943971
H	3.2456578	1.3083377	2.6716742
H	1.8223712	2.4931057	2.5218337
H	2.1317651	-0.2393748	1.1142570
C	0.3598772	1.0285572	0.8073268
O	-0.2759627	2.0457441	1.0258440
O	0.0000000	0.0000000	0.0000000
C	-1.2631277	0.1495325	-0.6639399
C	-2.3845736	-0.3576638	0.2232209
H	-1.2170217	-0.4512256	-1.5782155
H	-1.4326637	1.1883774	-0.9699602
H	-2.2013506	-1.3959303	0.5187835
H	-3.3452324	-0.3027971	-0.2965560
H	-2.4520696	0.2286876	1.1450472
C	6.6049330	1.7430609	7.4629506
H	6.7618066	2.1969860	8.4368896
H	7.3092591	2.0052449	6.6820857
H	4.9192536	0.6943306	8.1093387
C	5.5810016	0.9040915	7.2695394
C	5.2369151	0.2218737	6.0428780
C	5.8754347	0.2994743	4.8703840
H	4.3588871	-0.4196882	6.1029829
H	6.7548900	0.9067510	4.7076564
O	5.4414900	-0.4046114	3.7769567
C	6.2550552	-0.1869008	2.6279052
H	5.8458759	-0.7792888	1.8044238
H	7.2832848	-0.5169480	2.8113955
H	6.2385032	0.8682024	2.3341008
