29
-0.00121969 (energy)
C	3.0150835	0.4909077	1.8113155
C	2.0578781	0.0096047	1.0082071
H	3.9639512	-0.0240828	1.9158279
H	2.8729324	1.4063060	2.3800885
H	2.1986835	-0.9023887	0.4413353
C	0.7642245	0.7112194	0.8656477
O	0.4568308	1.7436828	1.4368214
O	0.0000000	0.0000000	0.0000000
C	-1.3017128	0.5429230	-0.2635264
C	-2.2938970	0.0521953	0.7741152
H	-1.6012540	0.1886653	-1.2553492
H	-1.2760691	1.6379168	-0.3073518
H	-2.3087130	-1.0422360	0.8045437
H	-3.3013827	0.4128068	0.5483373
H	-2.0164517	0.3949054	1.7759641
C	7.1914676	-1.1481475	2.3348593
H	7.2750394	-1.2614685	1.2581103
H	7.3300828	-2.0413637	2.9327861
H	6.8035930	0.8984171	2.1924000
C	6.9289558	0.0512804	2.8660591
C	6.7874080	0.3676878	4.2690436
C	6.8917430	-0.4767290	5.3008118
H	6.5726760	1.4130603	4.4863773
H	7.1021171	-1.5314487	5.1911934
O	6.7340537	-0.0438577	6.5920842
C	6.8828245	-1.0940398	7.5431837
H	6.7436629	-0.6703909	8.5419972
H	7.8875411	-1.5271489	7.4901096
H	6.1236486	-1.8684794	7.3891281
