29
-0.00106088 (energy)
C	-2.4010404	0.6327540	2.5391356
C	-1.7733355	0.2032075	1.4371583
H	-3.4345783	0.3648877	2.7302773
H	-1.8987137	1.2590574	3.2719900
H	-2.2731446	-0.4206736	0.7064976
C	-0.3645418	0.5683161	1.1761565
O	0.3286584	1.2618238	1.9008852
O	0.0000000	0.0000000	0.0000000
C	1.3519391	0.2473976	-0.4119742
C	1.4325008	1.5460931	-1.1922582
H	1.6480473	-0.5874433	-1.0556330
H	2.0358566	0.2512957	0.4446653
H	0.7453272	1.5258534	-2.0444953
H	2.4480861	1.7142953	-1.5614983
H	1.1418212	2.3976286	-0.5689445
C	8.2128762	2.0254385	-4.2857494
H	8.7097199	2.5818378	-5.0749138
H	8.8225581	1.3327157	-3.7174283
H	6.3691917	2.9264625	-4.6706536
C	6.9086317	2.2099010	-4.0520124
C	6.1049547	1.5526517	-3.0467056
C	6.5115409	0.6370061	-2.1608434
H	5.0576291	1.8507286	-3.0265392
H	7.5283206	0.2749670	-2.0992497
O	5.6406525	0.0889446	-1.2548578
C	6.2671786	-0.8641931	-0.4012776
H	5.5112732	-1.2524774	0.2874279
H	7.0615134	-0.3945662	0.1889246
H	6.6666677	-1.7026836	-0.9819495
