29
-0.000941168 (energy)
C	1.5942072	-1.7797707	1.1039807
C	1.6586998	-0.4510309	0.9517675
H	2.3892340	-2.3211002	1.6053616
H	0.7493612	-2.3542508	0.7326701
H	2.5001232	0.1219975	1.3212902
C	0.5752566	0.2871999	0.2681797
O	-0.4315798	-0.2154684	-0.2011988
O	0.9102040	1.6013369	0.2596859
C	-0.0395191	2.4761144	-0.3659800
C	0.2267044	2.5576855	-1.8574271
H	0.0906998	3.4650977	0.0855629
H	-1.0688863	2.1611548	-0.1591147
H	1.2574563	2.8746261	-2.0472282
H	-0.4545714	3.2676976	-2.3347005
H	0.1015496	1.5797515	-2.3329360
C	5.3014583	-1.3673805	2.7097777
H	5.1880740	-1.1066171	3.7578048
H	5.3178711	-2.4236421	2.4676873
H	5.3868249	0.6323283	2.1156016
C	5.4130679	-0.4059458	1.7862520
C	5.5690214	-0.5848504	0.3607042
C	5.6312716	-1.7431847	-0.3047714
H	5.6416880	0.3372285	-0.2143068
H	5.5689407	-2.7110664	0.1727501
O	5.7817040	-1.7728067	-1.6671665
C	5.8258552	-3.0996605	-2.1839985
H	5.9465405	-3.0379064	-3.2693990
H	4.8918537	-3.6309674	-1.9713722
H	6.6803067	-3.6485256	-1.7735138
