29
-0.00198622 (energy)
C	0.2243885	-3.4022785	0.9933444
C	-0.0814860	-2.1013272	0.9106153
H	-0.1844822	-4.0201789	1.7855009
H	0.8873662	-3.8772920	0.2746745
H	-0.7418020	-1.6273210	1.6262987
C	0.4758381	-1.2586716	-0.1689435
O	1.2309990	-1.6452142	-1.0447449
O	0.0000000	0.0000000	0.0000000
C	0.4381427	0.9608313	-0.9713402
C	1.7610219	1.5699238	-0.5459698
H	-0.3283371	1.7414213	-1.0174266
H	0.5046005	0.5159687	-1.9709753
H	1.6777989	2.0108855	0.4528055
H	2.0746471	2.3461620	-1.2496297
H	2.5454302	0.8082970	-0.4934749
C	5.3396093	0.4397982	2.9002754
H	5.3374560	0.7922067	3.9274161
H	5.3192943	-0.6335239	2.7515046
H	5.3857043	2.3786890	2.1271355
C	5.3663980	1.3155603	1.8893174
C	5.3730003	1.0112729	0.4765611
C	5.3536235	-0.2011584	-0.0874477
H	5.3964386	1.8786753	-0.1816268
H	5.3299353	-1.1227999	0.4771078
O	5.3628870	-0.3511919	-1.4501774
C	5.3389107	-1.7182967	-1.8502463
H	5.3480743	-1.7528248	-2.9434968
H	4.4258551	-2.2104408	-1.4981393
H	6.2248657	-2.2467402	-1.4819136
