29
-0.0018116 (energy)
C	0.1734456	0.5403222	0.2611823
C	-0.2067482	-0.6456996	-0.2304299
H	0.4297085	1.3602519	-0.4010358
H	0.2370400	0.7180955	1.3317037
H	-0.2702199	-0.8236369	-1.2968311
C	-0.5559447	-1.7636844	0.6719545
O	-0.5323318	-1.7185567	1.8901980
O	-0.8962223	-2.8270942	-0.0978434
C	-1.2729934	-4.0118893	0.6183771
C	-0.0440093	-4.8389950	0.9461539
H	-1.9374744	-4.5842590	-0.0372096
H	-1.8443878	-3.7676450	1.5213957
H	0.5144938	-5.0756603	0.0345678
H	-0.3257009	-5.7731349	1.4401945
H	0.6367597	-4.2879765	1.6027052
C	1.7942486	2.2642542	3.9101353
H	1.1795401	2.6166409	4.7330396
H	1.8832276	1.1907271	3.7910209
H	2.2570654	4.2036100	3.2905650
C	2.3993384	3.1402865	3.1001065
C	3.2448344	2.8360657	1.9682491
C	3.5823192	1.6234389	1.5164623
H	3.6387963	3.7037046	1.4408552
H	3.2443919	0.7015585	1.9688433
O	4.3978834	1.4734988	0.4246742
C	4.6372445	0.1061522	0.1042450
H	5.2915358	0.0717165	-0.7716488
H	3.7008098	-0.4042788	-0.1455671
H	5.1424441	-0.4042779	0.9313316
