29
-0.00178702 (energy)
C	0.9420920	2.5624597	2.2713092
C	0.2723321	1.6154617	1.6023592
H	0.4769455	3.0975983	3.0921340
H	1.9657729	2.8233840	2.0150677
H	-0.7476009	1.3550353	1.8569502
C	0.9059889	0.8859232	0.4832620
O	2.0421984	1.0661752	0.0792219
O	0.0000000	0.0000000	0.0000000
C	0.4504909	-0.8062667	-1.0980254
C	0.2131567	-0.0834499	-2.4107141
H	-0.1345558	-1.7315758	-1.0765921
H	1.5031400	-1.0885547	-0.9804119
H	-0.8420525	0.1901571	-2.5136607
H	0.4987370	-0.7137208	-3.2576180
H	0.7891761	0.8461620	-2.4570892
C	7.5826269	0.6392406	1.2446517
H	7.9720413	1.5420593	1.7056172
H	8.2285263	-0.2310084	1.2514677
H	5.7752660	1.5540944	0.7390263
C	6.3594136	0.6350499	0.7029464
C	5.6998518	-0.4761972	0.0559356
C	6.1860175	-1.7089964	-0.1238427
H	4.6992755	-0.2639155	-0.3181380
H	7.1662878	-2.0195740	0.2098019
O	5.4512419	-2.6771053	-0.7582698
C	6.1444630	-3.9183808	-0.8492926
H	5.4960197	-4.6329553	-1.3644404
H	6.3675839	-4.3130776	0.1478470
H	7.0654267	-3.8075109	-1.4318485
