#n B3LYP/6-31G(d) SP geom=connectivity

 Title

0 1
C	0.0000000	0.0000000	0.0000000
C	-1.3389838	0.0000000	0.0000000
H	0.5558913	0.9313823	0.0000000
H	0.5685674	-0.9264959	-0.0000627
H	-1.9061491	0.9226187	-0.0000780
C	-2.0970912	-1.2694091	-0.0002143
O	-1.6031319	-2.3841799	-0.0014299
O	-3.4182727	-0.9633203	-0.0028544
C	-4.3117384	-2.0859801	0.0018085
C	-4.5750531	-2.5518584	-1.4178979
H	-5.2480969	-1.7476977	0.4575866
H	-3.9260925	-2.9004002	0.6259773
H	-4.9607917	-1.7281664	-2.0275390
H	-5.3010748	-3.3696640	-1.4293106
H	-3.6526276	-2.8968255	-1.8956597
C	0.3605561	-8.1198577	-4.2323660
H	0.6332515	-8.4438428	-5.2323086
H	0.8871123	-7.2592497	-3.8365653
H	-1.0651813	-9.6303833	-4.0208169
C	-0.5848274	-8.7741188	-3.5483298
C	-1.0598041	-8.4721098	-2.2172765
C	-0.6453483	-7.4831980	-1.4180574
H	-1.8398831	-9.1346522	-1.8449033
H	0.1221173	-6.7735201	-1.6938487
O	-1.1829523	-7.3060852	-0.1693617
C	-0.6081820	-6.2010021	0.5220395
H	-1.0870040	-6.1272346	1.5027334
H	-0.7889058	-5.2665715	-0.0202096
H	0.4657891	-6.3535922	0.6741583
C	-5.2078847	-6.6093536	-1.7085465
H	-6.2441560	-6.8790570	-1.5279467
H	-4.4949535	-6.8594383	-0.9315314
H	-5.6414158	-5.7829075	-3.5762203
C	-4.8610789	-5.9980857	-2.8468743
C	-3.5351007	-5.5760961	-3.2370301
C	-2.4050889	-5.7161992	-2.5356633
H	-3.4729604	-5.0940562	-4.2116704
H	-2.3605892	-6.1799083	-1.5601119
O	-1.2050599	-5.2685700	-3.0247302
C	-0.1243183	-5.5113781	-2.1288243
H	0.7911464	-5.1279888	-2.5886176
H	0.0020912	-6.5853331	-1.9541897
H	-0.2795731	-4.9851871	-1.1807438
C	4.4127310	-1.3900994	-2.8017445
H	5.1199415	-0.6722028	-3.2063332
H	3.6840295	-1.8004211	-3.4910892
H	5.2307147	-1.2699600	-0.8845493
C	4.4656635	-1.7303092	-1.5090076
C	3.6034792	-2.6636562	-0.8205189
C	2.5909335	-3.3631927	-1.3438457
H	3.8200330	-2.7960801	0.2385920
H	2.2963641	-3.3028377	-2.3822547
O	1.8471778	-4.2204935	-0.5747613
C	0.8182942	-4.8686536	-1.3169828
H	0.2742010	-5.5307014	-0.6371827
H	1.2441393	-5.4770325	-2.1222075
H	0.1118347	-4.1366533	-1.7230961
C	-9.8017274	-0.6865328	3.0702325
H	-10.3034625	0.1107498	3.6104330
H	-9.7154519	-1.6410708	3.5761767
H	-9.4533983	0.5224538	1.4040434
C	-9.3241675	-0.4677615	1.8398712
C	-8.6364688	-1.4162774	0.9937607
C	-8.3474035	-2.6903738	1.2794016
H	-8.3295073	-1.0298835	0.0228735
H	-8.6083336	-3.1675972	2.2136823
O	-7.6859662	-3.4875384	0.3812608
C	-7.4741749	-4.8075003	0.8736537
H	-6.9446788	-5.3765738	0.1040681
H	-8.4289852	-5.3055549	1.0739908
H	-6.8544210	-4.7907824	1.7766838
C	4.8032655	-4.1052793	-3.1405639
H	5.8876530	-4.0622052	-3.1023151
H	4.3118920	-4.7226180	-2.3975897
H	4.7078488	-2.8200995	-4.7832375
C	4.1357897	-3.4168158	-4.0734128
C	2.7032981	-3.3682065	-4.2581284
C	1.7746417	-4.0009515	-3.5330751
H	2.3659387	-2.7422986	-5.0830984
H	2.0059185	-4.6440053	-2.6953999
O	0.4397969	-3.8682945	-3.8163051
C	-0.3847590	-4.6202491	-2.9307108
H	-1.4275683	-4.4625135	-3.2207816
H	-0.2594020	-4.2777829	-1.8978224
H	-0.1641159	-5.6903438	-3.0085036
C	-2.4466166	-1.7123408	-5.9703751
H	-2.7260453	-0.9048149	-6.6404766
H	-1.4176137	-1.7320440	-5.6307717
H	-4.3676737	-2.5298752	-5.9889403
C	-3.3538460	-2.6234627	-5.6009100
C	-3.1439805	-3.7513205	-4.7220425
C	-2.0052608	-4.0977984	-4.1123364
H	-4.0220571	-4.3727884	-4.5520227
H	-1.0803278	-3.5478393	-4.2160241
O	-1.9415690	-5.1993684	-3.2986320
C	-0.6434908	-5.3968919	-2.7458363
H	-0.6753966	-6.2887934	-2.1134072
H	-0.3521471	-4.5439810	-2.1233274
H	0.0950859	-5.5627818	-3.5375578
C	-4.1986499	-10.9041742	0.2965672
H	-4.7124449	-11.8603359	0.3279340
H	-4.4407361	-10.1931016	1.0778072
H	-3.1294909	-11.4190147	-1.4212821
C	-3.3144192	-10.6478699	-0.6740806
C	-2.5518713	-9.4337964	-0.8559080
C	-2.5852082	-8.3380608	-0.0899294
H	-1.8841641	-9.4334105	-1.7163233
H	-3.2129254	-8.2388984	0.7846247
O	-1.8052408	-7.2473415	-0.3756043
C	-1.9858859	-6.1860795	0.5575066
H	-1.3335812	-5.3591266	0.2623450
H	-1.7033073	-6.5037206	1.5670159
H	-3.0213440	-5.8290154	0.5444836
C	1.7919562	-4.5478131	7.3038443
H	2.4988857	-4.9353946	8.0313369
H	2.0644502	-4.6417234	6.2590985
H	0.4515457	-3.9325564	8.7816558
C	0.6478112	-3.9868851	7.7112815
C	-0.3906829	-3.4273130	6.8764617
C	-0.4052076	-3.3640446	5.5407008
H	-1.2445831	-3.0184917	7.4148548
H	0.3923596	-3.7407807	4.9156701
O	-1.4595439	-2.8032280	4.8672857
C	-1.2838891	-2.8327790	3.4538227
H	-2.1612083	-2.3702647	2.9924506
H	-1.2089194	-3.8642593	3.0928745
H	-0.3981103	-2.2592383	3.1600799
C	3.3269335	-2.6165000	-0.9996215
H	3.7666548	-3.3229490	-0.3019185
H	2.3575750	-2.8738347	-1.4103390
H	4.9486783	-1.3092872	-0.8571222
C	3.9772960	-1.4910418	-1.3159843
C	3.5323354	-0.4558967	-2.2209703
C	2.3881871	-0.4264569	-2.9127282
H	4.2190855	0.3814093	-2.3369031
H	1.6417612	-1.2071444	-2.8670955
O	2.0860953	0.6225115	-3.7422064
C	0.8252688	0.4649906	-4.3864962
H	0.6589606	1.3367248	-5.0259443
H	0.0155356	0.4188902	-3.6502471
H	0.8202639	-0.4304337	-5.0173907
C	1.4484845	-6.1907088	2.9028465
H	2.5120855	-6.0950190	2.7058420
H	1.1594841	-6.8347990	3.7251557
H	0.9388657	-4.9038859	1.3396627
C	0.5630357	-5.5311527	2.1474135
C	-0.8760517	-5.5515361	2.2782833
C	-1.5945867	-6.2322404	3.1776276
H	-1.4132890	-4.9388861	1.5556606
H	-1.1572244	-6.8672466	3.9353799
O	-2.9637746	-6.1634481	3.1924554
C	-3.5403935	-6.9589112	4.2241310
H	-4.6274940	-6.8508048	4.1693768
H	-3.2097719	-6.6156730	5.2104032
H	-3.2923565	-8.0165974	4.0840770
C	3.9558438	-0.4812346	1.5861694
H	4.5353909	0.4359888	1.6313431
H	3.9515410	-1.0108830	0.6406432
H	3.3479019	-0.3160960	3.5767230
C	3.2901816	-0.9094473	2.6647058
C	2.4790015	-2.1009887	2.7682959
C	2.2401460	-3.0001361	1.8075915
H	2.0224643	-2.2644064	3.7434964
H	2.6455754	-2.9289143	0.8079609
O	1.4465129	-4.0937928	2.0393016
C	1.3165892	-4.9284130	0.8920725
H	0.6732097	-5.7724822	1.1568043
H	2.2916650	-5.3220451	0.5852555
H	0.8467807	-4.3835274	0.0661080
C	-0.8960043	-8.2034351	2.7069821
H	-1.2889122	-8.8133666	3.5149557
H	-0.2397802	-7.3870173	2.9851865
H	-1.8924518	-9.3141480	1.2466475
C	-1.2260518	-8.4738717	1.4390524
C	-0.7914106	-7.7634556	0.2579889
C	0.0216845	-6.7028547	0.2082589
H	-1.1805441	-8.1512170	-0.6824173
H	0.4595992	-6.2437432	1.0835615
O	0.3568197	-6.1197818	-0.9864537
C	1.2308566	-5.0063113	-0.8256788
H	1.4493971	-4.5996741	-1.8173235
H	2.1751308	-5.3166073	-0.3653330
H	0.7542377	-4.2209147	-0.2291686
C	-10.6937665	1.6202015	-3.4247375
H	-11.6549973	1.6660830	-3.9278723
H	-10.6937882	1.7878133	-2.3540031
H	-9.6700070	1.2099470	-5.1975250
C	-9.5811454	1.3666358	-4.1229436
C	-8.2344674	1.2727740	-3.6070335
C	-7.8454389	1.4212652	-2.3361763
H	-7.4696048	1.0570228	-4.3517376
H	-8.5256896	1.6366036	-1.5240215
O	-6.5269042	1.3062698	-1.9785865
C	-6.3200256	1.4980374	-0.5821511
H	-5.2505387	1.3911507	-0.3790606
H	-6.8578009	0.7404802	-0.0018404
H	-6.6291464	2.5038696	-0.2778752
C	-4.9302945	-1.6760177	6.5054810
H	-5.8406558	-1.6971797	7.0970965
H	-4.5290676	-2.6324428	6.1911026
H	-4.8258494	0.4086831	6.5532457
C	-4.3564357	-0.5076647	6.1966925
C	-3.1518425	-0.3092151	5.4233309
C	-2.3834723	-1.2539339	4.8705336
H	-2.8565509	0.7304232	5.2887857
H	-2.5899500	-2.3123989	4.9462010
O	-1.2593413	-0.9278452	4.1566542
C	-0.5806945	-2.0739073	3.6510994
H	0.2985222	-1.7317384	3.0975913
H	-1.2233575	-2.6344523	2.9636189
H	-0.2425107	-2.7181060	4.4699263
C	3.1254476	-4.3689781	-6.2678896
H	3.3598386	-4.3814408	-7.3281348
H	2.6112053	-3.4925634	-5.8910367
H	3.9845862	-6.2453568	-5.9512645
C	3.4691668	-5.4027211	-5.4913940
C	3.2315473	-5.5399415	-4.0725133
C	2.6241263	-4.6613611	-3.2677728
H	3.5949753	-6.4672621	-3.6318953
H	2.2289418	-3.7139849	-3.6069106
O	2.4623311	-4.9164756	-1.9304745
C	1.7932248	-3.8594315	-1.2488881
H	1.7037527	-4.1375344	-0.1947884
H	0.7856169	-3.7128829	-1.6527516
H	2.3695964	-2.9300886	-1.3117788
C	-1.9969247	-6.3895047	5.0522840
H	-1.4708021	-7.3388524	5.0861715
H	-2.6478971	-6.1610891	5.8881231
H	-1.1536745	-5.8709378	3.2140278
C	-1.8273501	-5.5638428	4.0134192
C	-2.4495506	-4.2741302	3.8184240
C	-3.3113288	-3.6622242	4.6378023
H	-2.1720307	-3.7630134	2.8976147
H	-3.6492425	-4.0848336	5.5737097
O	-3.8308267	-2.4309411	4.3317115
C	-4.7272200	-1.9518012	5.3299648
H	-5.0957267	-0.9716372	5.0138094
H	-4.2127152	-1.8327514	6.2896354
H	-5.5854864	-2.6239783	5.4367111
C	1.3109254	-4.7177534	-2.2522421
H	0.9899989	-3.7200164	-2.5363925
H	1.9006435	-5.2667232	-2.9771081
H	0.3812126	-4.5967031	-0.3867264
C	0.9771013	-5.2160504	-1.0564267
C	1.3226353	-6.5169805	-0.5304016
C	2.0403088	-7.4679729	-1.1378793
H	0.9473487	-6.7237998	0.4708643
H	2.4566017	-7.3608547	-2.1298133
O	2.2973631	-8.6660696	-0.5229685
C	3.0758966	-9.5412646	-1.3338476
H	3.2365054	-10.4684777	-0.7762156
H	4.0533761	-9.0993169	-1.5553690
H	2.5470133	-9.7849762	-2.2616002
C	3.4562598	-3.4966566	-6.6895244
H	3.6927891	-3.5241542	-7.7490111
H	2.8151410	-4.2842246	-6.3110151
H	4.5866820	-1.7692841	-6.3772783
C	3.9492452	-2.5229192	-5.9158876
C	3.7310228	-2.3453957	-4.4983619
C	2.9962764	-3.1192476	-3.6922774
H	4.2284312	-1.4812920	-4.0601186
H	2.4641787	-3.9979676	-4.0290713
O	2.8709554	-2.8369147	-2.3565339
C	2.0487512	-3.7784713	-1.6731182
H	1.9991678	-3.4855065	-0.6204140
H	2.4791325	-4.7841256	-1.7304507
H	1.0316897	-3.7737420	-2.0798138
C	0.0821563	-6.4790276	-2.3120643
H	-0.8074601	-6.6055475	-2.9218099
H	0.7742473	-7.3123450	-2.2780364
H	-0.4626287	-4.5475549	-1.7360520
C	0.2841379	-5.3359596	-1.6469989
C	1.4083323	-5.0116324	-0.7987574
C	2.4582151	-5.7910050	-0.5180518
H	1.3760677	-4.0198132	-0.3499798
H	2.5837596	-6.7897136	-0.9124205
O	3.4635494	-5.3586327	0.3077722
C	4.4876519	-6.3339131	0.4799567
H	5.2468890	-5.9155335	1.1470327
H	4.9638745	-6.5707853	-0.4776233
H	4.0859491	-7.2419336	0.9425271
C	-0.7667578	-3.4619038	-3.7592350
H	-1.7712641	-3.7201717	-4.0809168
H	-0.6273725	-3.2636777	-2.7028998
H	0.0025127	-3.6142468	-5.6942240
C	0.2292265	-3.4000400	-4.6502464
C	1.6119288	-3.0731950	-4.3860087
C	2.1574219	-2.7710880	-3.2029449
H	2.2621436	-3.0796774	-5.2596942
H	1.5986440	-2.7375835	-2.2780927
O	3.4920189	-2.4783881	-3.0897834
C	3.8759246	-2.1843221	-1.7497286
H	4.9471185	-1.9630066	-1.7437285
H	3.6989412	-3.0457618	-1.0966939
H	3.3407724	-1.3046043	-1.3761692
C	4.5060055	-5.1478570	4.2949821
H	5.1126435	-5.1513132	5.1956446
H	4.4796830	-4.2254168	3.7266713
H	3.9166892	-7.1330636	4.5611187
C	3.8353216	-6.2470698	3.9321773
C	2.9900739	-6.4050312	2.7706613
C	2.7183062	-5.4842219	1.8396815
H	2.5355288	-7.3887376	2.6617664
H	3.1188826	-4.4802569	1.8570018
O	1.8943517	-5.7659858	0.7807500
C	1.7321060	-4.6555099	-0.0968179
H	1.0659206	-4.9589664	-0.9095810
H	2.6930493	-4.3600862	-0.5317532
H	1.2729901	-3.8100281	0.4268336
C	2.6875729	0.1888653	3.9000144
H	3.7457338	-0.0498510	3.8497697
H	1.9953717	-0.5952820	3.6162251
H	3.0530953	2.1338108	4.5654076
C	2.2906381	1.4029909	4.2975754
C	0.9303341	1.8758260	4.4180541
C	-0.1878754	1.1908725	4.1555330
H	0.8286079	2.9043358	4.7615172
H	-0.1942676	0.1664129	3.8103538
O	-1.4243691	1.7618734	4.3125974
C	-2.4848835	0.8698969	3.9820028
H	-3.4316088	1.3967272	4.1324474
H	-2.4722460	-0.0085297	4.6362680
H	-2.4236809	0.5655539	2.9315422
C	0.5266002	-6.4903774	-0.0608837
H	0.4515145	-6.1031028	-1.0726124
H	0.6909328	-7.5565046	0.0436795
H	0.2522469	-4.6041321	0.7911590
C	0.4169725	-5.6635766	0.9851064
C	0.4931635	-6.0179809	2.3840730
C	0.6873465	-7.2373527	2.8977815
H	0.3771713	-5.1860153	3.0772731
H	0.8135030	-8.1264708	2.2959007
O	0.7393015	-7.4374470	4.2531010
C	0.9531622	-8.8034009	4.5966691
H	0.9819579	-8.8791185	5.6874993
H	1.9113099	-9.1581727	4.2017696
H	0.1326669	-9.4295748	4.2298835
C	-7.3165895	-4.1198323	1.4955111
H	-6.5561009	-4.7964487	1.1172759
H	-7.3321253	-3.9508559	2.5659182
H	-8.0930144	-3.7635672	-0.4095893
C	-8.1782513	-3.5387609	0.6531288
C	-9.2409458	-2.6206515	0.9941136
C	-9.5642319	-2.1783752	2.2140927
H	-9.8294432	-2.2629795	0.1503784
H	-9.0430126	-2.4728328	3.1142772
O	-10.6025748	-1.3027383	2.4004582
C	-10.7849599	-0.9538116	3.7696154
H	-11.6259152	-0.2572909	3.8338497
H	-9.8939023	-0.4547802	4.1656454
H	-11.0252686	-1.8393966	4.3678030
C	5.3702201	3.6469757	-1.9692220
H	6.3429455	3.5628882	-2.4445629
H	5.3586058	3.9562603	-0.9305816
H	4.3593070	3.0696756	-3.7024119
C	4.2582105	3.3744084	-2.6612153
C	2.8974822	3.4376277	-2.1785799
C	2.4922037	3.7799302	-0.9509604
H	2.1359169	3.1737864	-2.9110780
H	3.1678937	4.0578638	-0.1541525
O	1.1615158	3.7992116	-0.6215278
C	0.9381646	4.1893929	0.7303148
H	-0.1402351	4.1799149	0.9131731
H	1.3083362	5.2048902	0.9080629
H	1.4105843	3.4833781	1.4218352
C	2.7104418	3.6021083	0.2847904
H	2.0836288	4.0031941	1.0756444
H	2.8470944	4.2227473	-0.5931043
H	3.0833602	1.8367814	1.3353717
C	3.2725258	2.3955963	0.4193394
C	4.1265660	1.7241412	-0.5336970
C	4.5164672	2.1804057	-1.7287999
H	4.4791773	0.7412915	-0.2241502
H	4.2219872	3.1413756	-2.1269524
O	5.3338279	1.4374661	-2.5409513
C	5.6331477	2.0977858	-3.7673244
H	6.2850247	1.4447719	-4.3547783
H	6.1638780	3.0381247	-3.5830859
H	4.7196560	2.2804960	-4.3435082
C	-1.6992295	3.5923165	-1.8184970
H	-1.1451426	2.9284074	-2.4753278
H	-1.1552186	4.4299482	-1.3977940
H	-3.4622838	2.4933502	-2.0260550
C	-2.9911905	3.3589861	-1.5613848
C	-3.8634743	4.1412802	-0.7154226
C	-3.5455122	5.2448724	-0.0302545
H	-4.8861192	3.7737819	-0.6426897
H	-2.5598726	5.6889310	-0.0360692
O	-4.4745245	5.8953980	0.7400575
C	-3.9393249	7.0460084	1.3875624
H	-4.7370423	7.5056346	1.9782091
H	-3.5899639	7.7787329	0.6520915
H	-3.1258750	6.7671487	2.0660714
C	-4.2688580	-5.5177151	6.6365019
H	-3.9214673	-5.5980399	7.6622124
H	-4.3084010	-6.4348177	6.0603726
H	-4.5535705	-3.4547896	6.7863196
C	-4.6236597	-4.3279116	6.1383085
C	-5.1033713	-4.0535158	4.8029814
C	-5.2833880	-4.9350954	3.8135965
H	-5.3374986	-3.0088537	4.6029483
H	-5.0806952	-5.9925257	3.9108785
O	-5.7476247	-4.5400661	2.5855639
C	-5.8699723	-5.6260869	1.6716736
H	-6.2433111	-5.2311924	0.7223848
H	-6.5869467	-6.3668453	2.0419173
H	-4.8959864	-6.0934326	1.4906291
C	-10.1457931	-7.5237634	-1.2766036
H	-10.8496949	-7.9769573	-1.9682335
H	-10.1861072	-7.8603944	-0.2472251
H	-9.3092141	-6.3152955	-2.7594755
C	-9.2828337	-6.5966038	-1.7071720
C	-8.2895595	-5.9022712	-0.9198832
C	-8.0448429	-6.0543702	0.3860459
H	-7.6863616	-5.1816776	-1.4703781
H	-8.5869520	-6.7423534	1.0196891
O	-7.0667739	-5.3281647	1.0150407
C	-6.9637587	-5.6355953	2.4022970
H	-6.1671567	-5.0192197	2.8288872
H	-6.6997464	-6.6885704	2.5485736
H	-7.8979143	-5.3993716	2.9232474
C	-0.4052519	4.0311238	-0.2795926
H	-0.5394214	4.4270321	0.7226397
H	0.6146177	3.9200179	-0.6290022
H	-2.4613184	3.8490379	-0.5936047
C	-1.4696915	3.7057518	-1.0217614
C	-1.4617208	3.1706979	-2.3642102
C	-0.3908968	2.8997162	-3.1181173
H	-2.4456115	2.9744950	-2.7880158
H	0.6268660	3.0586657	-2.7900917
O	-0.5236216	2.3911545	-4.3843626
C	0.7322020	2.1722705	-5.0204464
H	0.5417212	1.7687909	-6.0191426
H	1.3286015	1.4423116	-4.4624828
H	1.2823762	3.1132385	-5.1287313

1  2  1.0  3  1.0  4  1.0  
2  5  1.0  6  1.0  
3  
4  
5  
6  7  1.0  8  1.0  
7  
8  9  1.0  
9  10  1.0  11  1.0  12  1.0  
10  13  1.0  14  1.0  15  1.0  
11  
12  
13  
14  
15  
16  17  1.0  18  1.0  20  1.0  
17  
18  
19  20  1.0  
20  21  1.0  
21  22  1.0  23  1.0  
22  24  1.0  25  1.0  
23  
24  
25  26  1.0  
26  27  1.0  28  1.0  29  1.0  
27  
28  
29  
30  31  1.0  32  1.0  34  1.0  
31  
32  
33  34  1.0  
34  35  1.0  
35  36  1.0  37  1.0  
36  38  1.0  39  1.0  
37  
38  
39  40  1.0  
40  41  1.0  42  1.0  43  1.0  
41  
42  
43  
44  45  1.0  46  1.0  48  1.0  
45  
46  
47  48  1.0  
48  49  1.0  
49  50  1.0  51  1.0  
50  52  1.0  53  1.0  
51  
52  
53  54  1.0  
54  55  1.0  56  1.0  57  1.0  
55  
56  
57  
58  59  1.0  60  1.0  62  1.0  
59  
60  
61  62  1.0  
62  63  1.0  
63  64  1.0  65  1.0  
64  66  1.0  67  1.0  
65  
66  
67  68  1.0  
68  69  1.0  70  1.0  71  1.0  
69  
70  
71  
72  73  1.0  74  1.0  76  1.0  
73  
74  
75  76  1.0  
76  77  1.0  
77  78  1.0  79  1.0  
78  80  1.0  81  1.0  
79  
80  
81  82  1.0  
82  83  1.0  84  1.0  85  1.0  
83  
84  
85  
86  87  1.0  88  1.0  90  1.0  
87  
88  
89  90  1.0  
90  91  1.0  
91  92  1.0  93  1.0  
92  94  1.0  95  1.0  
93  
94  
95  96  1.0  
96  97  1.0  98  1.0  99  1.0  
97  
98  
99  
100  101  1.0  102  1.0  104  1.0  
101  
102  
103  104  1.0  
104  105  1.0  
105  106  1.0  107  1.0  
106  108  1.0  109  1.0  
107  
108  
109  110  1.0  
110  111  1.0  112  1.0  113  1.0  
111  
112  
113  
114  115  1.0  116  1.0  118  1.0  
115  
116  
117  118  1.0  
118  119  1.0  
119  120  1.0  121  1.0  
120  122  1.0  123  1.0  
121  
122  
123  124  1.0  
124  125  1.0  126  1.0  127  1.0  
125  
126  
127  
128  129  1.0  130  1.0  132  1.0  
129  
130  
131  132  1.0  
132  133  1.0  
133  134  1.0  135  1.0  
134  136  1.0  137  1.0  
135  
136  
137  138  1.0  
138  139  1.0  140  1.0  141  1.0  
139  
140  
141  
142  143  1.0  144  1.0  146  1.0  
143  
144  
145  146  1.0  
146  147  1.0  
147  148  1.0  149  1.0  
148  150  1.0  151  1.0  
149  
150  
151  152  1.0  
152  153  1.0  154  1.0  155  1.0  
153  
154  
155  
156  157  1.0  158  1.0  160  1.0  
157  
158  
159  160  1.0  
160  161  1.0  
161  162  1.0  163  1.0  
162  164  1.0  165  1.0  
163  
164  
165  166  1.0  
166  167  1.0  168  1.0  169  1.0  
167  
168  
169  
170  171  1.0  172  1.0  174  1.0  
171  
172  
173  174  1.0  
174  175  1.0  
175  176  1.0  177  1.0  
176  178  1.0  179  1.0  
177  
178  
179  180  1.0  
180  181  1.0  182  1.0  183  1.0  
181  
182  
183  
184  185  1.0  186  1.0  188  1.0  
185  
186  
187  188  1.0  
188  189  1.0  
189  190  1.0  191  1.0  
190  192  1.0  193  1.0  
191  
192  
193  194  1.0  
194  195  1.0  196  1.0  197  1.0  
195  
196  
197  
198  199  1.0  200  1.0  202  1.0  
199  
200  
201  202  1.0  
202  203  1.0  
203  204  1.0  205  1.0  
204  206  1.0  207  1.0  
205  
206  
207  208  1.0  
208  209  1.0  210  1.0  211  1.0  
209  
210  
211  
212  213  1.0  214  1.0  216  1.0  
213  
214  
215  216  1.0  
216  217  1.0  
217  218  1.0  219  1.0  
218  220  1.0  221  1.0  
219  
220  
221  222  1.0  
222  223  1.0  224  1.0  225  1.0  
223  
224  
225  
226  227  1.0  228  1.0  230  1.0  
227  
228  
229  230  1.0  
230  231  1.0  
231  232  1.0  233  1.0  
232  234  1.0  235  1.0  
233  
234  
235  236  1.0  
236  237  1.0  238  1.0  239  1.0  
237  
238  
239  
240  241  1.0  242  1.0  244  1.0  
241  
242  
243  244  1.0  
244  245  1.0  
245  246  1.0  247  1.0  
246  248  1.0  249  1.0  
247  
248  
249  250  1.0  
250  251  1.0  252  1.0  253  1.0  
251  
252  
253  
254  255  1.0  256  1.0  258  1.0  
255  
256  
257  258  1.0  
258  259  1.0  
259  260  1.0  261  1.0  
260  262  1.0  263  1.0  
261  
262  
263  264  1.0  
264  265  1.0  266  1.0  267  1.0  
265  
266  
267  
268  269  1.0  270  1.0  272  1.0  
269  
270  
271  272  1.0  
272  273  1.0  
273  274  1.0  275  1.0  
274  276  1.0  277  1.0  
275  
276  
277  278  1.0  
278  279  1.0  280  1.0  281  1.0  
279  
280  
281  
282  283  1.0  284  1.0  286  1.0  
283  
284  
285  286  1.0  
286  287  1.0  
287  288  1.0  289  1.0  
288  290  1.0  291  1.0  
289  
290  
291  292  1.0  
292  293  1.0  294  1.0  295  1.0  
293  
294  
295  
296  297  1.0  298  1.0  300  1.0  
297  
298  
299  300  1.0  
300  301  1.0  
301  302  1.0  303  1.0  
302  304  1.0  305  1.0  
303  
304  
305  306  1.0  
306  307  1.0  308  1.0  309  1.0  
307  
308  
309  
310  311  1.0  312  1.0  314  1.0  
311  
312  
313  314  1.0  
314  315  1.0  
315  316  1.0  317  1.0  
316  318  1.0  319  1.0  
317  
318  
319  320  1.0  
320  321  1.0  322  1.0  323  1.0  
321  
322  
323  
324  325  1.0  326  1.0  328  1.0  
325  
326  
327  328  1.0  
328  329  1.0  
329  330  1.0  331  1.0  
330  332  1.0  333  1.0  
331  
332  
333  334  1.0  
334  335  1.0  336  1.0  337  1.0  
335  
336  
337  
338  339  1.0  340  1.0  342  1.0  
339  
340  
341  342  1.0  
342  343  1.0  
343  344  1.0  345  1.0  
344  346  1.0  347  1.0  
345  
346  
347  348  1.0  
348  349  1.0  350  1.0  351  1.0  
349  
350  
351  
352  353  1.0  354  1.0  356  1.0  
353  
354  
355  356  1.0  
356  357  1.0  
357  358  1.0  359  1.0  
358  360  1.0  361  1.0  
359  
360  
361  362  1.0  
362  363  1.0  364  1.0  365  1.0  
363  
364  
365  
366  367  1.0  368  1.0  370  1.0  
367  
368  
369  370  1.0  
370  371  1.0  
371  372  1.0  373  1.0  
372  374  1.0  375  1.0  
373  
374  
375  376  1.0  
376  377  1.0  378  1.0  379  1.0  
377  
378  
379  
380  381  1.0  382  1.0  384  1.0  
381  
382  
383  384  1.0  
384  385  1.0  
385  386  1.0  387  1.0  
386  388  1.0  389  1.0  
387  
388  
389  390  1.0  
390  391  1.0  392  1.0  393  1.0  
391  
392  
393  
394  395  1.0  396  1.0  398  1.0  
395  
396  
397  398  1.0  
398  399  1.0  
399  400  1.0  401  1.0  
400  402  1.0  403  1.0  
401  
402  
403  404  1.0  
404  405  1.0  406  1.0  407  1.0  
405  
406  
407  
408  409  1.0  410  1.0  412  1.0  
409  
410  
411  412  1.0  
412  413  1.0  
413  414  1.0  415  1.0  
414  416  1.0  417  1.0  
415  
416  
417  418  1.0  
418  419  1.0  420  1.0  421  1.0  
419  
420  
421  
422  423  1.0  424  1.0  426  1.0  
423  
424  
425  426  1.0  
426  427  1.0  
427  428  1.0  429  1.0  
428  430  1.0  431  1.0  
429  
430  
431  432  1.0  
432  433  1.0  434  1.0  435  1.0  
433  
434  
435  
