31
-0.00900511 (energy)
C	-0.4317821	-0.2277418	-0.0439151
O	-0.5979043	0.9506380	0.2698971
O	0.8261608	-0.7740566	-0.2309456
H	1.5185609	-0.0907920	-0.0952987
N	-2.8102374	-0.9411127	0.2348081
C	-4.2271046	-0.2263717	2.0578016
H	-4.9789139	0.2055364	1.4095157
H	-4.4190155	-0.1790316	3.1220645
C	-3.0821458	-0.7817679	1.5987052
C	-2.0361245	-1.3166107	2.5533684
H	-1.0979416	-0.7520178	2.4914032
H	-2.3973208	-1.2372515	3.5808339
H	-1.8059685	-2.3713963	2.3557422
C	-3.2833082	-1.4504566	-2.0125213
C	-3.8140340	-0.6673160	-0.8009245
C	-1.5023136	-1.2709983	-0.3263473
C	-1.7506183	-1.3396204	-1.8727058
H	-3.5992501	-2.4977583	-1.9445242
H	-3.6408785	-1.0494598	-2.9657151
H	-4.7939427	-1.0234734	-0.4658221
H	-3.9012276	0.4098887	-1.0150357
H	-1.1271370	-2.2320218	0.0452161
H	-1.3979594	-0.4165202	-2.3469895
H	-1.2084964	-2.1734732	-2.3243017
C	3.3851060	-0.3763326	-2.2378869
H	2.3436981	-0.5013374	-2.5906279
O	3.6104602	-0.1204266	-1.0497203
C	4.4471902	-0.5392096	-3.2888513
H	4.2929239	0.1877749	-4.0973947
H	5.4394025	-0.4000274	-2.8544324
H	4.3795320	-1.5368835	-3.7425942
