31
-0.00511285 (energy)
C	-0.4035207	0.2341530	0.1502467
O	0.4712290	0.2885922	1.0142507
O	-0.2123577	-0.4148142	-1.0572959
H	0.6961781	-0.7847848	-1.1058034
N	-2.2430752	1.2014473	1.5373353
C	-2.6160774	0.6443041	3.8594321
H	-2.5261293	1.6673160	4.2020580
H	-2.8317057	-0.1024611	4.6128062
C	-2.4482373	0.2769975	2.5682773
C	-2.5249432	-1.1769126	2.1537166
H	-1.5650097	-1.5453697	1.7721946
H	-2.7923726	-1.7937527	3.0142025
H	-3.2797389	-1.3384552	1.3734680
C	-2.5760521	3.1921550	0.3290613
C	-2.3557034	2.6496369	1.7503518
C	-1.7860738	0.8674914	0.1904843
C	-1.7362045	2.2460082	-0.5543603
H	-3.6374594	3.1207700	0.0652384
H	-2.2694946	4.2370750	0.2222996
H	-3.1998071	2.8582669	2.4161785
H	-1.4483874	3.0693064	2.2134623
H	-2.4739894	0.1812581	-0.3176878
H	-0.7012673	2.6033441	-0.6057743
H	-2.1083977	2.1571125	-1.5774513
C	2.3469987	-0.7832414	-3.2098869
H	2.5736921	0.2780456	-3.4263654
O	2.6906061	-1.2831281	-2.1328263
C	1.6176003	-1.5227315	-4.2962617
H	2.2029615	-1.5027721	-5.2252401
H	1.4362016	-2.5577287	-3.9988528
H	0.6615716	-1.0281094	-4.5134513
