11
0.0435855 (energy)
C	-0.0056453	0.0299808	0.0782123
H	0.0672179	-0.3569766	-0.9312603
C	-0.2816745	-0.7193753	1.1460043
H	-0.4495361	-1.7861797	1.0349877
H	-0.3482580	-0.3043003	2.1449347
O	0.2200439	1.3752601	0.1166965
H	0.1448206	1.6778741	1.0381938
C	2.6770348	0.0282264	0.0558377
H	2.7230698	1.0409866	-0.3753570
H	3.3579371	-0.7112126	-0.3951145
O	1.9195874	-0.2565841	0.9750195
