11
-0.00240324 (energy)
C	0.0130118	-0.0458375	0.0691195
H	-0.1549288	0.5457792	-0.8229936
C	0.0909847	0.4643638	1.2985589
H	-0.0155917	1.5336337	1.4530811
H	0.2599408	-0.1526032	2.1734236
O	0.1338669	-1.3728843	-0.2250466
H	0.2828346	-1.8633077	0.6018056
C	3.0578066	-1.7731152	0.2400411
H	3.0734726	-1.3452553	-0.7750558
H	3.2339199	-1.0580607	1.0594537
O	2.8579751	-2.9640076	0.4439570
