18
-0.00470764 (energy)
C	-0.3297385	0.5559471	-0.1289030
O	0.2389588	-0.5114356	0.0831259
H	0.1336907	1.4972850	0.2155575
C	-1.6924098	0.7256297	-0.7590926
Cl	-1.9950970	-0.6044763	-1.9112733
H	-1.6855117	1.6506142	-1.3445740
C	-2.7827474	0.7561486	0.3162947
H	-2.7705663	-0.1629981	0.9144106
H	-3.7638673	0.8119417	-0.1702090
N	-2.6735553	1.9072693	1.2252792
H	-1.9894351	1.7030128	1.9571755
H	-3.5585493	2.0096144	1.7282022
O	2.7713178	0.4805804	2.5973793
H	2.1463171	-0.2313524	2.3783236
C	3.7801672	0.4687734	1.6042143
H	4.5017924	1.2598256	1.8212691
H	3.3303860	0.6476823	0.6245259
H	4.2893236	-0.4980907	1.6122244
