31
-0.00652814 (energy)
C	-0.4798432	0.0969247	-0.0242225
O	-0.2576780	-0.7606547	0.8300922
O	0.5293324	0.6687794	-0.7794758
H	1.4020595	0.3040621	-0.5149056
N	-2.9716943	-0.0814865	0.0255950
C	-4.1706418	-2.1753686	0.1665045
H	-4.6931319	-1.9067403	1.0758337
H	-4.3982415	-3.1460169	-0.2551192
C	-3.2545369	-1.3757840	-0.4264386
C	-2.5084450	-1.8270474	-1.6638985
H	-1.4329927	-1.9342435	-1.4776097
H	-2.8821508	-2.8008583	-1.9871361
H	-2.6357090	-1.1223002	-2.4956050
C	-3.4543231	2.0617941	0.8665080
C	-3.7612198	0.5704353	1.0777175
C	-1.8204336	0.7177381	-0.3869866
C	-1.9850372	2.0663334	0.3951803
H	-4.1080063	2.4680822	0.0861798
H	-3.5986526	2.6565174	1.7735398
H	-4.8218973	0.3352444	0.9398361
H	-3.4676102	0.2297070	2.0834580
H	-1.8136465	0.8995019	-1.4683278
H	-1.3145556	2.0772279	1.2622230
H	-1.7296502	2.9224491	-0.2333011
C	3.3284175	2.5211654	-0.8297344
H	3.5352549	2.1264598	-1.8426553
O	3.0812013	1.7443833	0.0995157
C	3.3743433	4.0176676	-0.6976356
H	2.6451652	4.4792157	-1.3768405
H	3.1595285	4.3174785	0.3302480
H	4.3634654	4.3925576	-0.9924378
