31
-0.0052588 (energy)
C	-0.0720900	-0.4417476	-0.1480603
O	0.2570580	0.2570162	-1.1050397
O	-0.1778336	0.1083480	1.1014549
H	-0.3989854	-0.5387794	1.8198219
N	-1.5172245	-2.3934228	0.5307039
C	-0.3163081	-2.4796785	2.6373461
H	0.6645896	-2.3167235	2.2054406
H	-0.3428186	-2.6651764	3.7025453
C	-2.7641160	-2.9628277	2.5784038
H	-3.1211401	-3.9506323	2.2611326
H	-2.6278415	-2.9910673	3.6608664
H	-3.5528667	-2.2368539	2.3502068
C	-2.0615418	-3.1110289	-1.6488832
C	-2.6930340	-2.6184810	-0.3346717
C	-0.3610850	-1.9584114	-0.2781432
C	-0.7254243	-2.3350403	-1.7417614
H	-1.8786431	-4.1896940	-1.5840271
H	-2.7071495	-2.9297290	-2.5133504
H	-3.3700341	-3.3519404	0.1058829
H	-3.2555874	-1.6852096	-0.4912119
H	0.5395541	-2.4930158	0.0566943
H	-0.8251391	-1.4202711	-2.3310046
H	0.0632125	-2.9330967	-2.2053016
C	-1.4584614	-2.6062646	1.9003123
C	3.7930204	2.5831009	-1.3450019
H	3.6103773	2.7114085	-0.2611377
O	4.9499895	2.5529407	-1.7791965
C	2.5614638	2.4552954	-2.1970654
H	1.9284108	3.3452123	-2.0815730
H	2.8342892	2.3326831	-3.2473555
H	1.9625395	1.5955681	-1.8684746
