31
-0.0100041 (energy)
C	-0.4798432	-0.0586787	0.0808575
O	-0.2576780	0.0491223	-1.1248270
O	0.5293324	-0.0112773	1.0269962
H	1.4020595	0.0980499	0.5898879
N	-2.9716943	0.0459701	-0.0719854
C	-4.1706418	1.5594019	-1.5258499
H	-4.6931319	0.7691152	-2.0497655
H	-4.3982415	2.5739762	-1.8267882
C	-3.2545369	1.3280211	-0.5576661
C	-2.5084450	2.4691329	0.1002167
H	-1.4329927	2.4315057	-0.1113931
H	-2.8821508	3.4228884	-0.2781226
H	-2.6357090	2.4638758	1.1903436
C	-3.4543231	-2.1364065	0.6615121
C	-3.7612198	-1.1297223	-0.4589107
C	-1.8204336	-0.3010690	0.7578021
C	-1.9850372	-1.8369202	1.0254879
H	-4.1080063	-1.9460559	1.5204352
H	-3.5986526	-3.1750197	0.3489663
H	-4.8218973	-0.8609271	-0.5044652
H	-3.4676102	-1.5151868	-1.4483685
H	-1.8136465	0.2547646	1.7029930
H	-1.3145556	-2.4025902	0.3682975
H	-1.7296502	-2.0887627	2.0572332
C	3.3975938	1.3166477	-1.9022241
H	3.8713321	0.4042364	-2.3116879
O	2.7757652	1.2664988	-0.8350660
C	3.5733518	2.5613154	-2.7262322
H	3.1604315	2.4094203	-3.7324487
H	3.0762077	3.4087585	-2.2495093
H	4.6414239	2.7830666	-2.8521755
