31
-0.00583778 (energy)
C	-0.4700281	0.0396405	0.1331647
O	0.1136282	-0.7693420	0.8539603
O	0.1686587	0.7108734	-0.8951282
H	1.1164488	0.4559468	-0.9322054
N	-2.7747209	-0.4280379	0.9777370
C	-3.6111378	-2.6446675	1.4558926
H	-3.8412886	-2.4214290	2.4899292
H	-3.8469745	-3.6432645	1.1110572
C	-3.0343828	-1.7550524	0.6155927
C	-2.6782100	-2.1398411	-0.8045050
H	-1.5952038	-2.1168661	-0.9758581
H	-3.0193508	-3.1567625	-1.0092973
H	-3.1475442	-1.4710731	-1.5373592
C	-3.2086956	1.6599647	1.9705250
C	-3.2547468	0.1473206	2.2402156
C	-1.9189825	0.4922236	0.2326093
C	-1.9800314	1.8272105	1.0521653
H	-4.1212762	1.9717956	1.4497161
H	-3.1223759	2.2511896	2.8871685
H	-4.2682597	-0.2129593	2.4460134
H	-2.6157476	-0.1371644	3.0914291
H	-2.2814035	0.6525401	-0.7898058
H	-1.0725970	1.9332649	1.6577580
H	-2.0421827	2.6949797	0.3916660
C	3.7434990	1.8381363	-1.3522128
H	4.0692252	1.0852758	-2.0949687
O	3.0863089	1.4904374	-0.3646812
C	4.1557130	3.2538168	-1.6437714
H	3.7574135	3.5702088	-2.6170650
H	3.7936299	3.9259348	-0.8629193
H	5.2495730	3.3222032	-1.7116457
