11
-0.00211856 (energy)
C	-0.0713222	0.0400872	0.0188161
H	0.8492211	-0.4773112	-0.2240399
C	-0.4987199	1.1360734	-0.6089195
H	0.0854632	1.5642134	-1.4176222
H	-1.4248115	1.6328417	-0.3440455
O	-0.7337772	-0.5702699	1.0439066
H	-1.5502189	-0.0739780	1.2269594
C	4.8481757	-0.5160153	-0.5963426
H	5.4358260	-1.3102078	-0.1088421
H	5.4358233	0.2781886	-1.0838529
O	3.6235374	-0.5160144	-0.5963433
