31
-0.00997575 (energy)
C	-0.4317821	0.0827948	-0.2166561
O	-0.5979043	-0.4308733	0.8893286
O	0.8261608	0.3618506	-0.7221937
H	1.5185609	0.1096168	-0.0728642
N	-2.8102374	-0.0678184	-0.9675891
C	-4.2271046	-1.9872300	-0.5802661
H	-4.9789139	-1.4237930	-0.0423459
H	-4.4190155	-3.0435449	-0.7184524
C	-3.0821458	-1.4386648	-1.0475033
C	-2.0361245	-2.2859500	-1.7399961
H	-1.0979416	-2.3229667	-1.1732205
H	-2.3973208	-3.3115866	-1.8402601
H	-1.8059685	-1.9081646	-2.7444397
C	-3.2833082	2.2338157	-1.0789503
C	-3.8140340	0.9046349	-0.5180989
C	-1.5023136	0.5420958	-1.1950193
C	-1.7506183	2.0768778	-0.9940767
H	-3.5992501	2.3487136	-2.1221488
H	-3.6408785	3.1028960	-0.5185252
H	-4.7939427	0.6364694	-0.9270354
H	-3.9012276	0.9284386	0.5799206
H	-1.1271370	0.3430573	-2.2059641
H	-1.3979594	2.3836614	-0.0026419
H	-1.2084964	2.6664100	-1.7368426
C	3.2016489	0.4047902	2.5339790
H	3.2276477	1.4912203	2.3252293
O	2.9935651	-0.3976491	1.6170250
C	3.4320037	0.0166391	3.9676294
H	2.6760374	0.4852477	4.6118094
H	3.3894848	-1.0686359	4.0814146
H	4.4093770	0.3852798	4.3062424
