11
-0.00253102 (energy)
C	-0.0082535	-0.0788205	-0.0276964
H	0.0982732	0.9385023	0.3297760
C	0.5388567	-1.1393960	0.5670780
H	1.1338189	-1.0137964	1.4664214
H	0.4151329	-2.1465254	0.1863347
O	-0.7699692	-0.1354262	-1.1585270
H	-0.8383706	-1.0634118	-1.4423491
C	2.5193108	-0.5631318	-2.2557849
H	2.8846400	0.4677550	-2.1233526
H	2.9758371	-1.3172187	-1.5949577
O	1.6629520	-0.8515675	-3.0823400
