31
-0.00469142 (energy)
C	0.3905891	-0.2617830	-0.0341983
O	-0.3936015	-0.5870665	-0.9239478
O	0.0523986	0.7233460	0.8547467
H	0.7644582	0.9541524	1.5054638
N	2.1485447	-1.1518278	1.5392005
C	2.8009936	1.1358564	2.0171058
H	2.7394232	1.4789146	0.9905694
H	3.1584544	1.8569558	2.7396007
C	2.8344369	-0.5743632	3.8344394
H	3.6762023	-1.2735520	3.9147583
H	3.0706008	0.3006770	4.4424071
H	1.9543648	-1.0650182	4.2656821
C	2.3772610	-3.2727809	0.5336726
C	2.0146513	-2.5868900	1.8628097
C	1.7890910	-0.9088039	0.1278679
C	1.8408027	-2.3067337	-0.5502831
H	3.4662515	-3.3713879	0.4591531
H	1.9414867	-4.2728231	0.4500139
H	2.6837736	-2.8698185	2.6768165
H	0.9850652	-2.8313256	2.1664053
H	2.5212301	-0.2224455	-0.3215241
H	0.8355353	-2.5807243	-0.8794031
H	2.4785007	-2.2935174	-1.4377827
C	2.5993896	-0.1596432	2.3976237
C	5.6466900	0.5641165	-0.0425467
H	5.4789070	1.4779339	0.5585935
O	4.7485425	0.1282818	-0.7715126
C	7.0034450	-0.0657592	0.1042538
H	7.1833382	-0.3346437	1.1537234
H	7.0807263	-0.9573670	-0.5215576
H	7.7853792	0.6518825	-0.1774954
