19
-0.00167719 (energy)
C	0.0304236	-0.0167300	0.0767866
H	-0.3622491	0.1992015	-0.9142850
C	-0.8645677	-0.2459855	1.1205730
H	-1.9350502	-0.2075519	0.9385870
C	-0.3821239	-0.5251865	2.3936467
H	-1.0732254	-0.7063713	3.2119771
C	0.9944698	-0.5745329	2.6195411
H	1.3525852	-0.7969768	3.6211605
C	1.9082363	-0.3431755	1.5832111
N	3.2654554	-0.4195998	1.8516853
H	3.9489928	-0.2354697	1.1327344
H	3.5910821	-0.5999225	2.7905517
C	2.3466526	0.1889375	-0.8613363
H	1.7948225	0.3908664	-1.7855826
H	2.9787852	-0.6868651	-1.0397279
H	2.9773835	1.0603639	-0.6577309
C	1.4186902	-0.0638478	0.2946177
Br	5.9912041	0.3750247	-1.8365605
H	5.7111910	-0.9918386	-2.2345405
