31
-0.00715428 (energy)
C	-0.3316417	-0.2892154	0.2158676
O	-0.8660145	0.7357958	-0.2065673
O	1.0233420	-0.5317867	0.0708191
H	1.4519015	0.2058670	-0.4158763
N	-2.3098244	-1.1503142	1.4763978
C	-3.7737162	0.2424992	2.8025818
H	-4.6641655	-0.0294849	2.2501677
H	-3.9067909	0.9260248	3.6313220
C	-2.5380024	-0.2082331	2.4863276
C	-1.3182174	0.2525075	3.2553801
H	-0.6304625	0.8294654	2.6253763
H	-1.6233385	0.8982213	4.0814557
H	-0.7584016	-0.5930008	3.6752879
C	-2.7162778	-3.0847358	0.2010447
C	-3.4068194	-1.8444352	0.7907504
C	-1.0029923	-1.4673665	0.9053879
C	-1.3050489	-2.5762926	-0.1607423
H	-2.6563712	-3.8723270	0.9609098
H	-3.2439607	-3.4905908	-0.6673250
H	-4.1877678	-2.1014449	1.5142339
H	-3.8642994	-1.2186104	0.0078893
H	-0.3046782	-1.8430467	1.6627549
H	-1.3127486	-2.1349225	-1.1640172
H	-0.5415801	-3.3573645	-0.1470464
C	3.0507783	-1.1459478	-2.7379310
H	3.2925300	-2.0810167	-2.1977597
O	2.9666450	-0.0779922	-2.1211615
C	2.8445894	-1.2906119	-4.2196991
H	2.0280451	-1.9971151	-4.4200877
H	2.6115983	-0.3231560	-4.6694999
H	3.7463338	-1.7075877	-4.6874613
