11
-0.00173469 (energy)
C	0.0366155	0.0457421	0.0601236
H	-0.4359748	-0.5446434	-0.7158812
C	0.2560339	1.3578244	-0.0304417
H	-0.0438754	1.9007169	-0.9214501
H	0.7314762	1.9229605	0.7627534
O	0.3767073	-0.7213255	1.1362917
H	0.7958740	-0.1523519	1.8048419
C	3.7672140	0.0207825	0.0478485
H	3.1795638	-0.7985015	0.4918892
H	3.1795662	0.8400807	-0.3961971
O	4.9918523	0.0207836	0.0478480
