31
-0.0101832 (energy)
C	-0.4317821	-0.0827948	0.2166561
O	-0.5979043	0.4308734	-0.8893286
O	0.8261608	-0.3618506	0.7221937
H	1.5185609	-0.1096168	0.0728642
N	-2.8102374	0.0678183	0.9675891
C	-4.2271046	1.9872300	0.5802662
H	-4.9789139	1.4237930	0.0423460
H	-4.4190155	3.0435448	0.7184526
C	-3.0821458	1.4386647	1.0475034
C	-2.0361245	2.2859499	1.7399962
H	-1.0979416	2.3229667	1.1732206
H	-2.3973208	3.3115865	1.8402603
H	-1.8059685	1.9081645	2.7444398
C	-3.2833082	-2.2338158	1.0789502
C	-3.8140340	-0.9046349	0.5180988
C	-1.5023136	-0.5420959	1.1950193
C	-1.7506183	-2.0768778	0.9940766
H	-3.5992501	-2.3487138	2.1221486
H	-3.6408785	-3.1028960	0.5185250
H	-4.7939427	-0.6364695	0.9270353
H	-3.9012276	-0.9284386	-0.5799207
H	-1.1271370	-0.3430575	2.2059641
H	-1.3979594	-2.3836614	0.0026418
H	-1.2084964	-2.6664101	1.7368424
C	2.7038552	2.5124882	-0.1082834
H	2.0978696	2.5031359	0.8176091
O	3.0570110	1.4482572	-0.6285770
C	3.0401750	3.8748999	-0.6466154
H	3.5947274	4.4517508	0.1055558
H	3.6370312	3.7895268	-1.5571377
H	2.1196946	4.4344569	-0.8597472
