31
-0.00816655 (energy)
C	-0.4798432	0.0993640	0.0103885
O	-0.2576780	-0.9986899	0.5198723
O	0.5293324	0.8950435	-0.5037316
H	1.4020595	0.4618330	-0.3798577
N	-2.9716943	-0.0853263	-0.0038186
C	-4.1706418	-2.1011257	-0.5875568
H	-4.6931319	-2.1597066	0.3588094
H	-4.3982415	-2.8690330	-1.3157347
C	-3.2545369	-1.1469635	-0.8712670
C	-2.5084450	-1.1477762	-2.1884402
H	-1.4329927	-1.3122221	-2.0500492
H	-2.8821508	-1.9523053	-2.8252470
H	-2.6357090	-0.2010700	-2.7289508
C	-3.4543231	1.6410895	1.5194263
C	-3.7612198	0.1674327	1.2078235
C	-1.8204336	0.8068104	-0.1181676
C	-1.9850372	1.8065587	1.0780757
H	-4.1080063	2.2897634	0.9251163
H	-3.5986526	1.8897235	2.5751647
H	-4.8218973	-0.0064162	0.9978174
H	-3.4676102	-0.4967306	2.0363745
H	-1.8136465	1.3474530	-1.0721291
H	-1.3145556	1.5202500	1.8965554
H	-1.7296502	2.8259975	0.7803051
C	3.7839602	0.2260763	-2.2686895
H	4.0025543	1.2855102	-2.0354531
O	3.2059164	-0.4846741	-1.4388031
C	4.2344449	-0.2434696	-3.6235579
H	5.3193735	-0.1092147	-3.7282121
H	3.9791108	-1.2953823	-3.7679906
H	3.7630069	0.3620216	-4.4090131
