31
-0.00436204 (energy)
C	0.2883428	-0.0827948	0.3876005
O	-0.7719927	0.4308734	0.7432510
O	0.5677606	-0.3618507	-0.9390171
H	-0.1919381	-0.1096169	-1.5081433
N	1.4408817	0.0678184	2.5995235
C	1.3054797	1.9872301	4.0621231
H	0.9062819	1.4237933	4.8959197
H	1.4748917	3.0435450	4.2271226
C	1.5667984	1.4386648	2.8534240
C	2.0671312	2.2859499	1.7030439
H	1.3460524	2.3229667	0.8775336
H	2.2285931	3.3115865	2.0413421
H	3.0163488	1.9081644	1.3019648
C	1.6326988	-2.2338157	3.0460698
C	1.1725276	-0.9046347	3.6661234
C	1.4377382	-0.5420959	1.2719772
C	1.2829658	-2.0768778	1.5514030
H	2.7149114	-2.3487137	3.1760624
H	1.1428791	-3.1028959	3.4955246
H	1.7454108	-0.6364693	4.5601340
H	0.1063305	-0.9284384	3.9426614
H	2.3681758	-0.3430575	0.7269517
H	0.2453546	-2.3836613	1.3762626
H	1.9203089	-2.6664101	0.8885373
C	4.7797841	0.4047901	2.8904713
H	4.8057829	1.4912203	2.6817217
O	4.5717003	-0.3976490	1.9735172
C	5.0101390	0.0166389	4.3241216
H	4.2541728	0.4852474	4.9683017
H	4.9676200	-1.0686361	4.4379067
H	5.9875123	0.3852796	4.6627346
