11
0.0293044 (energy)
C	0.0284582	0.0784591	-0.0090658
H	-0.3388464	-0.9341988	0.1079448
C	-0.7586420	1.1476258	-0.1326063
H	-1.8382737	1.0344959	-0.1195344
H	-0.3625445	2.1497637	-0.2484045
O	1.3924590	0.1193550	-0.0137903
H	1.6763890	1.0436732	-0.1206112
C	3.8676090	-0.1559242	-0.1971794
H	4.2649839	0.0586364	0.8077028
H	2.7696068	-0.2047479	-0.2730956
O	4.5976361	-0.3286188	-1.1651546
