11
0.00212167 (energy)
C	-0.0111164	-0.0074468	0.0828785
H	0.1323610	0.0886677	-0.9868206
C	-0.2972806	-1.1560324	0.6966926
H	-0.4003073	-2.0709249	0.1214265
H	-0.4355327	-1.2220862	1.7695886
O	0.1377465	1.1910904	0.7181277
H	0.0008834	1.0576137	1.6719848
C	3.7720042	0.3942063	0.7017011
H	3.6317162	0.6989277	1.7510797
H	4.8016433	0.4734366	0.3178758
O	2.8453281	-0.0058683	0.0081952
