11
268.223 (energy)
C	0.0485014	-0.0090765	0.0679199
H	-0.5774976	0.1080719	-0.8087109
C	-0.2398425	0.5043943	1.2642109
H	-1.1489241	1.0807196	1.4056097
H	0.4060015	0.3707817	2.1242201
O	1.1638575	-0.7454698	-0.2075769
H	1.6937818	-0.8245458	0.6044072
C	-4.6352132	1.2300598	2.4800965
H	-5.4639616	1.6252063	1.8711904
H	-4.0204656	0.4531033	1.9982459
O	-4.4122140	1.6278898	3.6166445
