11
-0.00481913 (energy)
C	0.0804081	0.0150950	-0.0188299
H	-0.9574051	-0.1797341	0.2242042
C	0.5622528	0.0454677	-1.2617336
H	-0.0963506	-0.1312857	-2.1064664
H	1.6063235	0.2431359	-1.4748685
O	0.8272541	0.2242975	1.1039561
H	1.7477172	0.3944533	0.8390304
C	3.3279626	-2.8665415	0.4995447
H	3.0909502	-3.2529756	1.5036488
H	3.3608865	-3.6199684	-0.3035866
O	3.5406189	-1.6788307	0.2901182
