18
0.000632177 (energy)
C	0.3863627	0.4108682	-0.3410745
O	-0.3424642	-0.3090693	0.3358155
H	0.8347998	0.0130146	-1.2685190
C	0.8261970	1.8122462	0.0131712
Cl	-0.4372043	2.6138489	0.9876312
H	0.9169436	2.3867801	-0.9142489
C	2.1512463	1.7825922	0.7810191
H	2.0610404	1.1871186	1.6975319
H	2.4125063	2.8036484	1.0836449
N	3.2727879	1.2552377	-0.0110011
H	3.2609855	0.2331913	0.0153679
H	4.1475916	1.5098294	0.4543180
O	3.0914916	-2.5061055	4.8683603
H	4.0177086	-2.2372336	4.9920116
C	2.6036769	-1.8097577	3.7363578
H	1.5611052	-2.0900725	3.5687656
H	3.1965737	-2.0785719	2.8586829
H	2.6650807	-0.7334709	3.9151505
