11
-0.00152897 (energy)
C	0.0434466	0.0595386	0.0401924
H	-0.5173107	-0.7089163	-0.4785641
C	1.3666412	0.2015535	-0.0428385
H	1.9503193	-0.4759671	-0.6583542
H	1.9012812	0.9806002	0.4880371
O	-0.7734996	0.8591712	0.7854304
H	-0.2297123	1.5313366	1.2313900
C	5.0820869	-1.3461810	0.9612575
H	6.0115617	-1.3321020	1.5525356
H	4.3740245	-2.1530846	1.2088662
O	4.8513638	-0.5200785	0.0871520
