11
-0.00565534 (energy)
C	0.0815366	-0.0059327	0.0190912
H	-0.9708420	0.0706391	-0.2273153
C	0.5701439	-0.8139034	0.9605543
H	-0.0977028	-1.4481195	1.5352929
H	1.6288668	-0.8694966	1.1854939
O	0.8388646	0.8259509	-0.7533188
H	1.7722407	0.7243023	-0.4986279
C	4.5920422	2.1869857	-2.1165327
H	3.8818074	3.0128367	-2.2816628
H	5.4940712	2.2029137	-2.7488663
O	4.3922117	1.3098620	-1.2855931
