11
0.0396448 (energy)
C	0.0284582	-0.0622131	-0.0486575
H	-0.3388464	0.7407604	0.5793561
C	-0.7586420	-0.9099948	-0.7117155
H	-1.8382737	-0.8202899	-0.6415564
H	-0.3625445	-1.7046288	-1.3332027
O	1.3924590	-0.0946403	-0.0740203
H	1.6763890	-0.8275785	-0.6472361
C	4.4656611	-0.3704695	-0.3574916
H	4.6754431	-0.6332982	-1.4066074
H	5.3128023	-0.4808652	0.3381523
O	3.3643735	0.0184270	0.0108344
