11
0.00225766 (energy)
C	-0.0056453	0.0208051	0.0811367
H	0.0672179	-0.2477226	-0.9660806
C	-0.2816745	-0.8461644	1.0558562
H	-0.4495361	-1.8931746	0.8231205
H	-0.3482580	-0.5484949	2.0958285
O	0.2200439	1.3527752	0.2737842
H	0.1448206	1.5476151	1.2239262
C	3.8040832	-0.6411676	-0.3526448
H	4.6251456	-0.9318275	0.3219697
H	3.8989025	-0.9895244	-1.3935160
O	2.8497442	0.0246730	0.0289730
