11
0.00260079 (energy)
C	0.0362786	0.0346675	0.0673046
H	-0.4319625	-0.4127801	-0.8013846
C	0.3652131	-0.6414675	1.1684631
H	0.1666604	-1.7067594	1.2340651
H	0.8331787	-0.1667902	2.0230228
O	0.2451625	1.3716465	-0.1088987
H	0.6653132	1.7298831	0.6920575
C	2.8786058	0.3777479	-1.1335274
H	2.7304555	-0.3222351	-1.9712665
H	3.0008877	1.4358776	-1.4148894
O	2.9055602	0.0045817	0.0325597
