11
0.0404791 (energy)
C	0.0083324	-0.0657828	-0.0514885
H	-0.0992126	0.7832651	0.6130652
C	0.0582642	0.0290933	-1.3805528
H	-0.0099843	1.0002449	-1.8609488
H	0.1664545	-0.8386479	-2.0207894
O	0.0857261	-1.2384085	0.6421628
H	0.1810926	-1.9700811	0.0081664
C	2.2748505	-0.6676709	0.8340631
H	2.2242526	-0.1735644	1.8174399
H	2.4520242	-1.7547848	0.8574862
O	2.1429606	-0.0497827	-0.2150118
