11
0.000441322 (energy)
C	-0.0219641	0.0772974	0.0243017
H	0.2615225	-0.9203668	-0.2893566
C	0.4486454	0.6770294	1.1182646
H	1.1609111	0.1645938	1.7575308
H	0.1467330	1.6769179	1.4074952
O	-0.9175245	0.6384729	-0.8389749
H	-1.1426560	1.5292819	-0.5193407
C	4.6894143	-1.0715145	1.3928129
H	4.0027964	-0.6932428	2.1668914
H	5.0865911	-2.0846957	1.5644822
O	4.9910144	-0.4099641	0.4073549
