11
0.0425826 (energy)
C	0.0262411	-0.0797451	0.0000000
H	-0.3124478	0.9495118	-0.0000005
C	1.3092946	-0.4426227	0.0000002
H	2.0895570	0.3122046	0.0000001
H	1.6187794	-1.4812766	-0.0000024
O	-1.0228147	-0.9524850	0.0000010
H	-0.6732359	-1.8603317	-0.0000162
C	4.2809111	-0.3205208	0.9345417
H	4.5689231	-1.3775257	1.0508216
H	4.7394520	0.3782552	1.6523218
O	3.5030205	0.0527630	0.0654707
