18
0.000734929 (energy)
C	-0.3988730	-0.2071916	0.4820712
O	0.3923598	0.1709219	-0.3773819
H	-1.4777211	-0.2456595	0.2493837
C	-0.0560253	-0.5586274	1.9109703
Cl	1.6077881	-1.2015920	1.9924766
H	-0.7196879	-1.3676159	2.2327186
C	-0.1965901	0.6692494	2.8158381
H	0.4534729	1.4844270	2.4758011
H	0.1220084	0.4041189	3.8310207
N	-1.5748866	1.1752282	2.9026632
H	-1.7719869	1.7742201	2.0978193
H	-1.6405561	1.8036186	3.7072957
O	0.9391527	2.7821404	-1.7417254
H	1.8926245	2.7862270	-1.5511096
C	0.7896898	3.0571508	-3.1224220
H	-0.2741615	3.0599495	-3.3710821
H	1.2959405	2.2841297	-3.7057311
H	1.2169211	4.0373189	-3.3479758
