11
-0.00339508 (energy)
C	-0.0801549	-0.0120105	-0.0218821
H	0.9543905	0.1430064	0.2605461
C	-0.5604824	-1.1639118	-0.4912595
H	0.0960471	-2.0201806	-0.6110365
H	-1.6012643	-1.2898897	-0.7660054
O	-0.8246496	1.1165421	0.1632931
H	-1.7422072	0.9318755	-0.1019938
C	3.2703581	2.5658196	0.1845275
H	3.9805929	3.3046017	-0.2198224
H	2.3683290	2.9844774	0.6586847
O	3.4701886	1.3597862	0.1117951
