31
-0.00442741 (energy)
C	0.0722553	0.3490879	-0.3085070
O	0.0893566	0.8075929	0.8325009
O	-0.1381864	-0.9890036	-0.5092578
H	-0.0853683	-1.2774121	-1.4567618
N	-0.5880431	0.8640717	-2.6869453
C	0.6946182	-1.0669841	-3.4034543
H	1.5358220	-0.8843067	-2.7444686
H	0.7954501	-1.9012068	-4.0843852
C	-1.4463332	-0.4976279	-4.5527286
H	-1.4679528	0.2938744	-5.3122955
H	-1.2444766	-1.4413400	-5.0623902
H	-2.4455948	-0.5551602	-4.1061799
C	-0.9872754	3.1673554	-2.3749564
C	-1.6685333	1.8621095	-2.8230169
C	0.3038120	1.2235389	-1.5664521
C	0.0013766	2.7195952	-1.2712931
H	-0.4482345	3.6069828	-3.2219154
H	-1.7063560	3.9076569	-2.0118319
H	-2.0314935	1.9100250	-3.8508030
H	-2.5208059	1.6163660	-2.1709372
H	1.3500899	1.0834499	-1.8742611
H	-0.4354367	2.8048668	-0.2733571
H	0.9163624	3.3173201	-1.2751763
C	-0.3797909	-0.2317260	-3.5118334
C	4.2804431	-1.7994647	-1.3113615
H	4.3181986	-2.8881033	-1.5063574
O	3.7415317	-1.0422260	-2.1263316
C	4.9153566	-1.3511023	-0.0249191
H	5.9734971	-1.6442599	-0.0038450
H	4.8323183	-0.2677890	0.0851439
H	4.4321697	-1.8468451	0.8274792
