11
-0.00290972 (energy)
C	-0.0801549	0.0026185	-0.0248238
H	0.9543905	-0.0311778	0.2955724
C	-0.5604824	-0.6757009	-1.0674526
H	0.0960471	-1.3106451	-1.6542988
H	-1.6012643	-0.6224366	-1.3649734
O	-0.8246496	0.8238881	0.7710637
H	-1.7422072	0.8235541	0.4478319
C	2.9398278	2.3655915	0.8807359
H	3.4143379	2.9675616	1.6720660
H	2.0151426	2.7861324	0.4542873
O	3.4088908	1.3001538	0.5005235
