11
0.0314595 (energy)
C	0.0605724	-0.0413740	-0.0408296
H	-0.7212257	0.4926331	0.4861507
C	-0.1666962	-0.9765537	-0.9637025
H	-1.1846029	-1.2451860	-1.2287994
H	0.6361972	-1.4947084	-1.4750346
O	1.3009779	0.3635179	0.3587325
H	1.9685832	-0.1401442	-0.1382771
C	3.3018730	0.7095845	1.1513006
H	3.5969031	1.7690734	1.2158903
H	2.9436290	0.2583842	2.0903615
O	3.3677327	0.0757466	0.1055230
