11
-0.00787133 (energy)
C	0.0770537	0.0180019	0.0280453
H	-0.9174655	-0.2143452	-0.3339305
C	0.5387976	1.2575399	0.1961064
H	-0.0923312	2.1104658	-0.0336058
H	1.5393137	1.4598793	0.5602616
O	0.7927438	-1.1143078	0.2885362
H	1.6748111	-0.8587899	0.6095641
C	4.8142313	-0.9216039	1.5685611
H	5.0838434	-1.9887500	1.6158865
H	5.3906571	-0.2564191	2.2311458
O	3.9326803	-0.5027519	0.8288519
