11
0.0443871 (energy)
C	-0.0325424	-0.0391026	0.0667822
H	0.3874770	0.4655883	-0.7951638
C	0.3382288	0.2001704	1.3250284
H	1.1049194	0.9391031	1.5365411
H	-0.1000236	-0.3207098	2.1683560
O	-0.9845036	-0.9461360	-0.2982565
H	-1.3322960	-1.3730781	0.5037110
C	2.5313481	-0.7854193	0.9011463
H	1.5825776	-0.8008343	1.4609035
H	3.2796510	-1.5308148	1.2144902
O	2.7402459	0.0073227	-0.0086123
