11
-0.00144578 (energy)
C	-0.0197351	0.0580323	0.0573643
H	0.2349820	-0.6909808	-0.6830266
C	0.0543114	-0.1394123	1.3739657
H	0.3859553	-1.0966934	1.7640925
H	-0.2072816	0.6292473	2.0918196
O	-0.4238704	1.2231176	-0.5269678
H	-0.6413990	1.8636075	0.1722067
C	3.9864307	0.4824594	0.6224876
H	2.9438188	0.1265262	0.6207094
H	4.1742169	1.3990882	1.2041093
O	4.8771544	-0.1017649	0.0183086
