11
0.0294493 (energy)
C	0.0605724	-0.0309725	-0.0491891
H	-0.7212257	0.3687839	0.5856862
C	-0.1666962	-0.7310459	-1.1610131
H	-1.1846029	-0.9321435	-1.4803867
H	0.6361972	-1.1189362	-1.7770374
O	1.3009779	0.2721290	0.4321806
H	1.9685832	-0.1049168	-0.1665936
C	3.9122000	-0.2717155	-1.1197709
H	4.2667833	-1.2865666	-1.3607675
H	4.0513688	0.4805865	-1.9125064
O	3.3977156	0.0018708	-0.0426473
