31
-0.004334 (energy)
C	-0.3905317	0.1604541	-0.2097599
O	0.5139100	0.9806425	-0.3570513
O	-0.1621512	-0.9987717	0.4824201
H	-0.9326725	-1.6227763	0.5078814
N	-2.8796965	-0.0700147	0.1205640
C	-2.6696080	-2.4382552	-0.3640817
H	-1.9752284	-2.3154240	-1.1874931
H	-3.0012572	-3.4487588	-0.1674784
C	-4.2967105	-1.6594521	1.3606426
H	-5.2699776	-1.2558449	1.0544767
H	-4.4154428	-2.7338374	1.5112826
H	-4.0376085	-1.2040706	2.3233125
C	-3.4361041	2.1692037	-0.3674430
C	-3.5294077	1.1036103	0.7390572
C	-1.8089818	0.3623563	-0.7996276
C	-2.0922619	1.8662203	-1.0733351
H	-4.2743677	2.0474367	-1.0629025
H	-3.4742811	3.1870441	0.0319642
H	-4.5597045	0.8795170	1.0195051
H	-2.9911854	1.4246377	1.6441675
H	-1.8649638	-0.2270181	-1.7262195
H	-1.2733286	2.4633389	-0.6649832
H	-2.1382981	2.0722289	-2.1456830
C	-3.2378079	-1.3966643	0.3111918
C	4.5830877	0.8911423	1.2648667
H	4.6973530	1.9724614	1.0592569
O	5.3318959	0.3315943	2.0736957
C	3.4850930	0.2014217	0.5047540
H	3.6501258	0.3067963	-0.5758511
H	3.4445248	-0.8575628	0.7683498
H	2.5187253	0.6739851	0.7252777
