11
0.000602494 (energy)
C	0.0206843	-0.0791133	0.0190031
H	-0.2462848	0.9419890	-0.2262671
C	-0.6656279	-1.1475611	-0.3875695
H	-1.5513104	-1.0249708	-1.0032901
H	-0.3745627	-2.1583234	-0.1263733
O	1.1432492	-0.1314141	0.7931515
H	1.3446185	-1.0630202	0.9879625
C	1.5212662	-4.6348043	-1.1179658
H	2.0587639	-4.1575560	-1.9528679
H	1.7700367	-4.2549740	-0.1141739
O	0.7019851	-5.5278632	-1.2939295
