18
0.00141761 (energy)
C	-0.4099201	0.4851143	0.1762109
O	0.3742491	-0.4204795	-0.0933395
H	-1.0587547	0.8971398	-0.6167489
C	-0.5304124	1.1875081	1.5084755
Cl	-0.0970356	0.0627691	2.8258474
H	-1.5809204	1.4558286	1.6597017
C	0.3710414	2.4252702	1.5478627
H	1.4191568	2.1537470	1.3733609
H	0.3161126	2.8764767	2.5457557
N	-0.0131173	3.4579884	0.5736092
H	0.3798674	3.2291299	-0.3421421
H	0.4443276	4.3356502	0.8325965
O	4.3572747	2.0472929	-1.1106832
H	3.4180856	1.7994687	-1.0663348
C	4.5735021	3.0372533	-0.1219886
H	5.6232508	3.3391127	-0.1449616
H	4.3358302	2.6278859	0.8629131
H	3.9425259	3.9049177	-0.3297339
