11
0.00049154 (energy)
C	-0.0391857	0.0417082	0.0614231
H	0.4665771	-0.4966123	-0.7313539
C	-0.1030754	-0.3784828	1.3252522
H	0.3689855	-1.3124883	1.6139840
H	-0.6166340	0.1816805	2.0979471
O	-0.5994327	1.1986253	-0.3966807
H	-1.0405517	1.6467862	0.3455840
C	3.9900179	-0.3945966	-1.0351419
H	4.9079614	-0.9201997	-0.7271609
H	3.7120450	-0.5061032	-2.0953557
O	3.3231686	0.2692614	-0.2513412
