18
-0.00494723 (energy)
C	0.5709680	-0.0058798	0.3292137
O	-0.4720157	-0.0430423	-0.3176889
H	0.6928106	0.7531224	1.1220609
C	1.7923211	-0.8635965	0.0937930
Cl	1.3004598	-2.4451879	-0.5732624
H	2.2604648	-1.0651041	1.0626421
C	2.7658283	-0.1638539	-0.8595533
H	2.2850916	0.0559740	-1.8204329
H	3.6087064	-0.8341850	-1.0659695
N	3.3176966	1.0863215	-0.3157176
H	2.6547928	1.8495027	-0.4691012
H	4.1369726	1.3482275	-0.8696243
O	0.1792306	3.3691301	-1.2024677
H	-0.0071332	3.4731673	-0.2538348
C	-0.8743765	4.0017586	-1.9053092
H	-0.6952890	3.9029488	-2.9785210
H	-0.9063744	5.0612008	-1.6394908
H	-1.8228222	3.5224019	-1.6507540
