11
0.0377695 (energy)
C	0.0005794	-0.0822288	-0.0169105
H	-0.0068987	0.9790847	0.2013501
C	0.0182240	-0.5899435	-1.2497207
H	0.0260071	0.0703499	-2.1114201
H	0.0253507	-1.6572404	-1.4378939
O	-0.0103134	-0.8288090	1.1253209
H	-0.0030794	-1.7707653	0.8823046
C	2.8138274	-0.4816241	-0.8193130
H	2.8142651	-1.5346165	-1.1432546
H	3.4617162	0.1940968	-1.4001721
O	2.1382874	-0.0884985	0.1234684
