18
0.000554721 (energy)
C	0.3592488	0.2670903	-0.4837600
O	-0.3155221	-0.1737918	0.4425154
H	0.7300493	-0.4219979	-1.2629910
C	0.8315879	1.6940638	-0.6368834
Cl	-0.3461803	2.8045103	0.1168358
H	0.8496280	1.9354973	-1.7045054
C	2.2140088	1.8744721	-0.0023831
H	2.1955489	1.6096927	1.0617000
H	2.5027276	2.9303091	-0.0675333
N	3.2661227	1.0865750	-0.6623293
H	3.2525235	0.1285840	-0.3052834
H	4.1765158	1.4516108	-0.3715480
O	3.8143365	-2.9276968	2.8840252
H	4.6731948	-2.5612797	2.6128046
C	2.9860374	-1.8333237	3.2312444
H	2.0092819	-2.2114800	3.5419946
H	2.8622541	-1.1794842	2.3644846
H	3.4394768	-1.2796014	4.0570258
