11
-0.00142504 (energy)
C	0.0265418	0.0543665	-0.0582040
H	-0.3160290	-0.6473322	0.6930246
C	0.3493308	1.3224912	0.1978690
H	0.2766749	1.7101999	1.2092922
H	0.6894196	2.0022674	-0.5746766
O	0.0850448	-0.5227721	-1.2933888
H	0.3960157	0.1407570	-1.9332459
C	3.9192971	-0.0559020	0.7986822
H	3.4577803	-0.5208788	1.6844193
H	3.2386463	0.5311985	0.1616709
O	5.1094126	-0.1831414	0.5395024
