11
0.000457813 (energy)
C	-0.0799837	0.0131859	-0.0218317
H	0.9523522	-0.1570022	0.2599462
C	-0.5115842	1.1094805	-0.6461437
H	0.1857106	1.9007391	-0.9035611
H	-1.5514683	1.2524622	-0.9159213
O	-0.8776646	-1.0325063	0.3420724
H	-1.7911851	-0.8371085	0.0706117
C	0.8278171	-3.0454971	-2.3668862
H	1.0924837	-2.0116792	-2.0932010
H	0.9041270	-3.2871674	-3.4390467
O	0.4725268	-3.8709118	-1.5349018
