31
-0.00478831 (energy)
C	-0.3905317	0.1014303	0.2438373
O	0.5139100	-0.1811058	1.0277869
O	-0.1621512	0.0815978	-1.1061717
H	-0.9326725	0.3715501	-1.6593062
N	-2.8796965	-0.0694042	-0.1209165
C	-2.6696080	1.5344317	-1.9295500
H	-1.9752284	2.1861113	-1.4114692
H	-3.0012572	1.8694202	-2.9029733
C	-4.2967105	-0.3486248	-2.1174490
H	-5.2699776	-0.2852811	-1.6148319
H	-4.4154428	0.0581098	-3.1232139
H	-4.0376085	-1.4100122	-2.2044121
C	-3.4361041	-0.7663870	2.0623070
C	-3.5294077	-1.1918475	0.5862259
C	-1.8089818	0.5113196	0.7136235
C	-2.0922619	-0.0035749	2.1528618
H	-4.2743677	-0.1032180	2.3045834
H	-3.4742811	-1.6212040	2.7440789
H	-4.5597045	-1.3226758	0.2519314
H	-2.9911854	-2.1362097	0.4116886
H	-1.8649638	1.6084589	0.6665065
H	-1.2733286	-0.6557773	2.4658056
H	-2.1382981	0.8221013	2.8674445
C	-3.2378079	0.4288323	-1.3651426
C	3.0753661	2.3817240	-0.9296692
H	2.9882672	3.0968899	-0.0897083
O	2.9950038	2.7829771	-2.0960953
C	3.2900622	0.9468858	-0.5369568
H	2.4613506	0.6002908	0.0948310
H	3.3644279	0.3146959	-1.4243025
H	4.2058458	0.8522006	0.0615317
