11
-0.00506747 (energy)
C	0.0815366	-0.0096385	-0.0175148
H	-0.9708420	0.1147635	0.2085461
C	0.5701439	-0.1274811	-1.2525381
H	-0.0977028	-0.1016483	-2.1080422
H	1.6288668	-0.2509686	-1.4485976
O	0.8388646	-0.0301657	1.1174856
H	1.7722407	-0.1431433	0.8676137
C	4.6928447	2.1391751	1.4327632
H	5.0954826	3.0388853	0.9406904
H	4.7403673	2.1385076	2.5334434
O	4.2237807	1.2023826	0.7986199
