11
-0.0072535 (energy)
C	0.0770537	0.0265083	0.0201970
H	-0.9174655	-0.3156296	-0.2404817
C	0.5387976	1.2487733	-0.2458242
H	-0.0923312	1.9716953	-0.7534009
H	1.5393137	1.5634585	0.0271656
O	0.7927438	-0.9484216	0.6522511
H	1.6748111	-0.5985154	0.8665263
C	2.4142247	1.1342410	3.1162985
H	2.0017107	2.1510229	3.2148789
H	2.2390897	0.4655660	3.9741781
O	3.0265437	0.7715044	2.1196911
