11
0.00122707 (energy)
C	0.0440423	-0.0633342	0.0331200
H	-0.5244042	0.7541099	-0.3943538
C	-0.2492712	-1.3512007	-0.1492904
H	-1.1026012	-1.6354032	-0.7572628
H	0.3380663	-2.1483628	0.2913343
O	1.0930045	0.3914695	0.7781198
H	1.5728156	-0.3732262	1.1406289
C	1.4579277	-2.2165532	3.8915317
H	1.4034728	-3.2866080	4.1479472
H	2.4542807	-1.8485288	3.5989660
O	0.4764966	-1.4850387	3.9291924
