40
-0.00126753 (energy)
C	0.2004144	-0.4827928	0.3389571
H	-0.2807962	0.5511220	-1.4092610
C	-0.2403562	0.5958023	-0.3228036
H	0.2319091	-0.5321536	1.4222676
H	0.5244665	-1.3645539	-0.2053426
C	-0.7310154	1.8258564	0.2751601
C	-0.2823209	2.3234096	1.4429973
H	0.5178479	1.8085626	1.9662929
O	-1.7498153	2.4185186	-0.4489012
C	-1.2445736	3.3511944	-1.4045953
H	-2.1000033	3.8207204	-1.8991658
H	-0.6465219	2.8450281	-2.1695069
H	-0.6534706	4.1392051	-0.9267268
S	-0.9167005	3.7604206	2.1855370
C	-0.0530411	3.6784391	3.7424641
C	1.1345979	4.3933742	3.9259257
C	1.8106909	4.3314514	5.1462439
H	1.5399971	5.0030105	3.1221451
C	1.2998676	3.5589437	6.1886310
H	2.7336093	4.8888905	5.2840531
C	-0.5649605	2.9114987	4.7941844
C	0.1119072	2.8502421	6.0139153
H	1.8251422	3.5132299	7.1393602
H	-0.2903808	2.2527915	6.8279917
H	-1.4936708	2.3592704	4.6706826
C	3.5794477	2.5785646	-1.6349098
C	3.5670910	1.2748039	-1.3300605
H	2.7118389	3.2017106	-1.4466757
H	4.4528329	3.0507137	-2.0775576
H	2.6973026	0.8036496	-0.8891710
C	4.7495020	0.4250002	-1.5867001
O	5.7982166	0.8077101	-2.0770489
O	4.4495715	-0.8350732	-1.1848608
C	5.4949268	-1.8027485	-1.3566298
C	5.4334070	-2.3985396	-2.7506139
H	5.3284198	-2.5889241	-0.6128965
H	6.4795307	-1.3676317	-1.1497044
H	4.4451858	-2.8298776	-2.9411178
H	6.1890359	-3.1797552	-2.8721488
H	5.5983745	-1.6311395	-3.5135099
