40
-0.000463713 (energy)
C	0.2422055	-0.5482606	-0.1760524
C	-0.2082283	0.6497512	0.2173365
H	-0.4426251	-1.3097170	-0.5333747
H	1.3007234	-0.7942838	-0.1500514
H	-1.2626597	0.8955705	0.1918626
C	0.7249690	1.6879063	0.7046790
O	1.9345071	1.5616234	0.7928919
O	-0.0062667	2.7822883	1.0315434
C	0.7445323	3.9016236	1.5235364
C	0.9457283	3.7793980	3.0223774
H	0.1598608	4.8007618	1.3029786
H	1.7009393	4.0028963	0.9975905
H	-0.0178918	3.6805925	3.5328664
H	1.4658360	4.6569302	3.4166729
H	1.5297044	2.8870352	3.2689297
C	5.1287535	-4.3583458	-3.7113290
H	4.5799107	-2.7824475	-4.9651734
C	4.6637065	-3.1216467	-3.9346670
H	5.2033325	-4.7845956	-2.7164727
H	5.4294119	-4.9886845	-4.5426246
C	4.1992801	-2.1861525	-2.9244695
C	4.6949869	-2.1248407	-1.6741715
H	5.5145433	-2.7806306	-1.3958861
O	3.1533893	-1.3897362	-3.3549342
C	3.6216450	-0.1746166	-3.9403617
H	2.7479432	0.4279651	-4.2056070
H	4.1879007	-0.3724188	-4.8564341
H	4.2326117	0.4027065	-3.2388351
S	4.0930556	-1.0481536	-0.4505592
C	5.0179658	-1.6608745	0.9443475
C	6.2131370	-1.0411302	1.3221826
C	6.9372428	-1.5192054	2.4163616
H	6.5871604	-0.1830435	0.7691347
C	6.4671270	-2.6148854	3.1393803
H	7.8658278	-1.0341867	2.7061800
C	4.5471359	-2.7546334	1.6780950
C	5.2719934	-3.2318690	2.7719292
H	7.0298128	-2.9849959	3.9927805
H	4.9015091	-4.0821238	3.3387726
H	3.6133424	-3.2398703	1.4037111
