40
0.000549027 (energy)
C	0.5089558	0.2730978	-0.2379689
C	-0.5434213	-0.3253126	0.3341194
H	0.4415963	0.6740593	-1.2435437
H	1.4574593	0.3754174	0.2831218
H	-1.4886814	-0.4277644	-0.1844254
C	-0.4519174	-0.8721921	1.7047674
O	0.5402264	-0.8350622	2.4125690
O	-1.6552354	-1.4148423	2.0158538
C	-1.7510251	-1.9938938	3.3251251
C	-1.2818487	-3.4364412	3.2955655
H	-2.8061952	-1.9561287	3.6151696
H	-1.1933518	-1.4059838	4.0633337
H	-1.8489525	-4.0100978	2.5551354
H	-1.4062879	-3.9048738	4.2759376
H	-0.2274462	-3.5008618	3.0088377
C	2.7507243	5.0493444	-1.8460388
H	3.1600860	5.2719894	0.1885771
C	3.0894795	4.5713041	-0.6409265
H	2.6193789	4.4105967	-2.7130681
H	2.5732185	6.1115793	-1.9836008
C	3.3249393	3.1765656	-0.3083557
C	3.8351734	2.2758016	-1.1691779
H	4.1272303	2.5991332	-2.1638313
O	2.9239465	2.8437431	0.9730110
C	3.9813690	3.0123745	1.9174290
H	3.6151230	2.6802604	2.8933279
H	4.2674055	4.0658402	2.0031796
H	4.8553783	2.4061569	1.6579491
S	4.0554150	0.5951806	-0.7873274
C	4.5241453	-0.0015988	-2.4000260
C	5.8751259	-0.1439337	-2.7314905
C	6.2431697	-0.6135851	-3.9940609
H	6.6485242	0.1082026	-2.0101373
C	5.2626538	-0.9470488	-4.9276936
H	7.2946521	-0.7224425	-4.2471279
C	3.5448204	-0.3451286	-3.3377279
C	3.9139439	-0.8145611	-4.5998795
H	5.5496563	-1.3152098	-5.9095164
H	3.1488254	-1.0802188	-5.3248091
H	2.4899255	-0.2510387	-3.0906339
