40
-0.000353873 (energy)
C	0.5638527	-0.2462851	-0.1079881
C	-0.6164622	0.3482202	0.1071814
H	0.6761790	-1.3184904	0.0113714
H	1.4407711	0.3223416	-0.4068887
H	-1.4905381	-0.2175746	0.4051232
C	-0.7699142	1.8097965	-0.0552163
O	0.1178646	2.5785508	-0.3832051
O	-2.0580223	2.1254910	0.2282137
C	-2.3914821	3.5164714	0.1157606
C	-2.0912555	4.2341380	1.4183588
H	-3.4643116	3.5721052	-0.0960830
H	-1.8722550	3.9843779	-0.7286661
H	-2.6178385	3.7561333	2.2509134
H	-2.3968485	5.2827396	1.3627574
H	-1.0226796	4.1935240	1.6520751
C	6.0926017	1.0209137	4.1864139
H	5.4423725	-0.8916767	4.7117802
C	5.4582153	-0.1318735	3.9330188
H	6.1181465	1.8425770	3.4784542
H	6.5906804	1.1739015	5.1389300
C	4.7277772	-0.4585340	2.7201324
C	5.0540404	0.0066524	1.4995246
H	5.9322605	0.6357013	1.3890585
O	3.6227188	-1.2595832	2.9451495
C	3.9485771	-2.6465468	2.8521295
H	3.0246567	-3.2173601	2.9838790
H	4.6447661	-2.9406684	3.6444510
H	4.3671114	-2.8984527	1.8722855
S	4.1401220	-0.3352403	0.0619343
C	4.9814448	0.7518355	-1.0725667
C	6.0032894	0.2597862	-1.8904895
C	6.6614339	1.1103745	-2.7812522
H	6.2924528	-0.7871002	-1.8406749
C	6.2975133	2.4540515	-2.8610852
H	7.4552143	0.7232721	-3.4149497
C	4.6152290	2.0987426	-1.1625784
C	5.2740108	2.9483587	-2.0535356
H	6.8083373	3.1152148	-3.5566504
H	4.9853672	3.9942213	-2.1195630
H	3.8145501	2.4935335	-0.5414784
