40
0.000627657 (energy)
C	0.5955044	-0.0960633	0.1624625
C	-0.6607215	0.1016886	-0.2566657
H	0.8392498	-0.0720937	1.2191089
H	1.4052724	-0.2854840	-0.5375798
H	-1.4679929	0.2905990	0.4401324
C	-0.9933293	0.0692991	-1.6969604
O	-0.1972021	-0.1294115	-2.5988510
O	-2.3236818	0.3018738	-1.8206111
C	-2.8279069	0.3013957	-3.1638998
C	-2.6866870	1.6820272	-3.7769715
H	-3.8873241	0.0304274	-3.1077980
H	-2.3328010	-0.4615260	-3.7757904
H	-3.1871966	2.4317457	-3.1554108
H	-3.1219182	1.7073307	-4.7799557
H	-1.6344876	1.9758900	-3.8451500
C	7.4049107	3.3500585	-0.0297814
H	7.3434272	3.0732032	2.0381597
C	6.8974087	2.8029031	1.0831588
H	6.9904468	3.1636111	-1.0148941
H	8.2508911	4.0279354	0.0300071
C	5.7543492	1.9085519	1.1530956
C	5.4251531	1.0344939	0.1833626
H	6.0588553	0.9531172	-0.6946893
O	4.9970827	2.0760246	2.2985068
C	5.4415960	1.2238592	3.3543129
H	4.7688448	1.3658321	4.2052325
H	6.4542221	1.4903571	3.6745115
H	5.4051961	0.1687022	3.0644153
S	4.0213858	0.0124042	0.2431401
C	4.0954698	-0.6654398	-1.4035808
C	4.6981246	-1.9074673	-1.6259576
C	4.7545760	-2.4402818	-2.9155446
H	5.1257829	-2.4679819	-0.7983104
C	4.2048787	-1.7361576	-3.9862087
H	5.2241793	-3.4060922	-3.0834464
C	3.5387009	0.0327661	-2.4800991
C	3.5957658	-0.5008876	-3.7691309
H	4.2466654	-2.1526332	-4.9895486
H	3.1614093	0.0458304	-4.6021598
H	3.0562395	0.9943897	-2.3212823
