40
0.000596657 (energy)
C	0.5762628	-0.0235362	-0.2400311
C	-0.6399055	0.0899894	0.3085347
H	0.8190167	-0.8607969	-0.8854404
H	1.3534730	0.7142094	-0.0574405
H	-1.4147072	-0.6446596	0.1272202
C	-0.9711193	1.2310448	1.1885438
O	-0.2083248	2.1342348	1.4870458
O	-2.2564535	1.0820135	1.5946516
C	-2.7534244	2.1126008	2.4604330
C	-2.4220117	1.7881855	3.9050311
H	-3.8401902	2.1432088	2.3302827
H	-2.3671239	3.0970115	2.1718205
H	-2.8155030	0.8035093	4.1779831
H	-2.8477261	2.5375544	4.5782750
H	-1.3392148	1.7529406	4.0613511
C	6.4815534	-4.2812148	-1.1516824
H	6.1945351	-3.5687590	-3.0925166
C	5.9618596	-3.4227120	-2.0396378
H	6.2642167	-4.2280273	-0.0901148
H	7.1317887	-5.0850296	-1.4831190
C	5.0570750	-2.3255558	-1.7413874
C	5.0778599	-1.6277171	-0.5901625
H	5.8305559	-1.8600290	0.1572702
O	4.1279026	-2.0949431	-2.7398477
C	4.6031404	-1.1448744	-3.6937990
H	3.8027280	-0.9685571	-4.4184140
H	5.4717702	-1.5330248	-4.2358151
H	4.8516926	-0.1885220	-3.2222764
S	3.9528538	-0.3588111	-0.2119535
C	4.4122555	-0.0711175	1.4859372
C	5.3096350	0.9518730	1.8076158
C	5.6683512	1.1793767	3.1379080
H	5.7337111	1.5780429	1.0265018
C	5.1279813	0.3887263	4.1513930
H	6.3663910	1.9757261	3.3830128
C	3.8672629	-0.8559346	2.5074166
C	4.2266847	-0.6276321	3.8372058
H	5.4054626	0.5680004	5.1871314
H	3.8000914	-1.2404006	4.6271654
H	3.1590857	-1.6476430	2.2741901
