40
0.000498487 (energy)
C	-0.3527671	-0.3589248	-0.3701027
C	0.3527032	0.4014993	0.4766230
H	0.0043380	-0.5482950	-1.3766329
H	-1.2989363	-0.8074337	-0.0780969
H	1.2953594	0.8488004	0.1864114
C	-0.1338645	0.6600366	1.8486785
O	-1.1726762	0.2292980	2.3198956
O	0.7745571	1.4540099	2.4680287
C	0.4640844	1.8053634	3.8240616
C	-0.4110913	3.0442849	3.8569871
H	1.4146272	2.0129967	4.3263491
H	-0.0046421	0.9691643	4.3557157
H	0.0712030	3.8700002	3.3235907
H	-0.6048347	3.3549443	4.8875200
H	-1.3696239	2.8615049	3.3610697
C	6.2931576	-0.4957601	3.7547527
H	5.5769014	-2.4496557	3.5932629
C	5.5672077	-1.4518318	3.1593563
H	6.3035825	0.5322178	3.4081367
H	6.8866864	-0.7266176	4.6340724
C	4.7076152	-1.2776856	2.0008598
C	4.9466872	-0.3917660	1.0156083
H	5.8482419	0.2123720	1.0529211
O	3.5806446	-2.0792976	2.0295263
C	3.8092474	-3.3342871	1.3882412
H	2.8679037	-3.8916051	1.3973784
H	4.5567698	-3.9224111	1.9307174
H	4.1177998	-3.2050689	0.3457347
S	3.8828161	-0.1423889	-0.3352405
C	4.6805175	1.2746197	-1.0649046
C	5.5887224	1.1067976	-2.1147980
C	6.2124494	2.2167098	-2.6885334
H	5.8154263	0.1130404	-2.4931100
C	5.9271633	3.4980627	-2.2183992
H	6.9178058	2.0812012	-3.5043875
C	4.3922005	2.5628720	-0.6026772
C	5.0164818	3.6719444	-1.1770261
H	6.4109425	4.3620194	-2.6672037
H	4.7887146	4.6708916	-0.8140800
H	3.6792908	2.7104245	0.2052212
