40
0.00328629 (energy)
C	0.3259158	0.0594153	0.5296191
C	-0.3113094	-0.0495085	-0.6429667
H	-0.1924126	-0.1290878	1.4635840
H	1.3752530	0.3382254	0.5827234
H	-1.3567567	-0.3270957	-0.6966972
C	0.3948586	0.2075768	-1.9162930
O	1.5666466	0.5286758	-2.0188568
O	-0.4918624	0.0258369	-2.9262012
C	0.0277997	0.2303810	-4.2478595
C	-0.0733542	1.6952867	-4.6296478
H	-0.5841991	-0.3703130	-4.9287120
H	1.0574374	-0.1359338	-4.3330022
H	-1.1070697	2.0452542	-4.5408764
H	0.2655875	1.8524573	-5.6574900
H	0.5319430	2.3177298	-3.9630840
C	3.5133171	-1.6323251	-1.7233238
H	3.3027303	0.3810619	-1.2146632
C	3.7837548	-0.5621351	-0.9636330
H	3.9199915	-2.6161318	-1.5142053
H	2.8463496	-1.5444309	-2.5754996
C	4.6290106	-0.5425623	0.2181029
C	5.7016086	-1.3387175	0.3866252
H	5.9890403	-2.0171305	-0.4110681
O	4.1949287	0.3436881	1.1874324
C	4.7823726	1.6346107	1.0233198
H	4.4419980	2.2651607	1.8499796
H	4.4564275	2.0984899	0.0865510
H	5.8756905	1.5884824	1.0586774
S	6.6715383	-1.3566217	1.8280548
C	7.7132225	-2.7525455	1.4499791
C	8.9774053	-2.5539439	0.8863517
C	9.7950863	-3.6470206	0.5919131
H	9.3339247	-1.5489744	0.6742237
C	9.3543094	-4.9415936	0.8640816
H	10.7769682	-3.4876061	0.1537316
C	7.2795072	-4.0528833	1.7281649
C	8.0978804	-5.1451108	1.4332918
H	9.9923518	-5.7920715	0.6371931
H	7.7559793	-6.1535444	1.6516230
H	6.3037088	-4.2227757	2.1772370
