40
0.00386691 (energy)
C	0.5234395	0.0360112	0.3390603
C	-0.5638894	-0.0893324	-0.4322259
H	0.5189979	0.6904771	1.2040128
H	1.4386323	-0.5099849	0.1246447
H	-1.4760010	0.4543939	-0.2193506
C	-0.5581462	-0.9812051	-1.6114867
O	0.3889762	-1.6550912	-1.9796548
O	-1.7799919	-0.9049023	-2.1950012
C	-1.9575423	-1.7182185	-3.3636158
C	-1.4921273	-0.9696508	-4.5985160
H	-3.0283451	-1.9320380	-3.4448480
H	-1.4441443	-2.6813168	-3.2613720
H	-2.0147560	-0.0115598	-4.6870941
H	-1.6778026	-1.5579419	-5.5015564
H	-0.4223802	-0.7448202	-4.5417736
C	1.2983286	4.3385336	0.9369145
H	0.9728861	3.4314852	2.7884436
C	1.5321058	3.3917170	1.8558595
H	1.7841480	4.3450805	-0.0330993
H	0.5826647	5.1302669	1.1363088
C	2.4351839	2.2626115	1.7112531
C	3.5688826	2.2967439	0.9857936
H	3.8610344	3.2238635	0.5017766
O	1.9913169	1.1204769	2.3531075
C	2.4763548	1.0463202	3.6939071
H	2.1363894	0.0983640	4.1212444
H	2.0692754	1.8589175	4.3045887
H	3.5705298	1.0622638	3.7292429
S	4.6125393	0.9255194	0.7636956
C	5.7290047	1.6131782	-0.4434833
C	6.9443556	2.1733973	-0.0380783
C	7.8206715	2.7103634	-0.9835151
H	7.2170843	2.1944682	1.0141779
C	7.4877015	2.6849859	-2.3373122
H	8.7642384	3.1448610	-0.6635131
C	5.4037952	1.5833237	-1.8035283
C	6.2807173	2.1205724	-2.7479948
H	8.1714744	3.1006905	-3.0732016
H	6.0231233	2.0946701	-3.8036830
H	4.4676061	1.1404786	-2.1354167
