40
-0.000679563 (energy)
C	0.5510297	0.0682816	0.2862719
C	-0.5971440	-0.1242027	-0.3751846
H	0.5921441	0.7238490	1.1494226
H	1.4718629	-0.4225717	-0.0183474
H	-1.5149314	0.3645648	-0.0724067
C	-0.6535340	-1.0175965	-1.5519571
O	0.2916167	-1.6346504	-2.0130922
O	-1.9290184	-1.0162980	-2.0127782
C	-2.1711510	-1.8422189	-3.1607739
C	-1.8745680	-1.0707655	-4.4331109
H	-3.2300304	-2.1200008	-3.1373751
H	-1.5934733	-2.7725480	-3.1121344
H	-2.4597773	-0.1459470	-4.4672611
H	-2.1122348	-1.6717712	-5.3153526
H	-0.8197949	-0.7821275	-4.4807457
C	8.4005731	-1.9593153	0.6116592
H	7.1302072	-3.5993221	0.8426526
C	7.1895667	-2.5172079	0.7450476
H	8.5467922	-0.8860776	0.5502523
H	9.2898998	-2.5814553	0.5831216
C	5.9244090	-1.8074594	0.8285546
C	5.6763449	-0.6402603	0.2049844
H	6.4417982	-0.2055597	-0.4308556
O	5.0049635	-2.4226922	1.6589612
C	4.1816525	-3.3441786	0.9437504
H	3.4458730	-3.7497546	1.6444296
H	4.7734303	-4.1784285	0.5528719
H	3.6402673	-2.8536205	0.1282894
S	4.1843312	0.2366330	0.3591161
C	4.6411294	1.7254559	-0.5077129
C	4.3170874	1.8794289	-1.8592179
C	4.6726557	3.0465784	-2.5385160
H	3.7857318	1.0939318	-2.3909356
C	5.3487849	4.0655071	-1.8685061
H	4.4186712	3.1616177	-3.5891186
C	5.3124076	2.7541222	0.1613206
C	5.6675152	3.9206816	-0.5188876
H	5.6229689	4.9750776	-2.3970830
H	6.1890008	4.7170478	0.0058571
H	5.5609399	2.6540525	1.2153270
