40
-0.000812513 (energy)
C	0.5340014	-0.2644882	-0.1874465
C	-0.5730800	0.3654468	0.2253857
H	0.5011442	-1.3056018	-0.4899211
H	1.4939975	0.2435080	-0.2322909
H	-1.5298396	-0.1400032	0.2704760
C	-0.5286423	1.7845714	0.6379830
O	0.4694394	2.4849363	0.6437241
O	-1.7823439	2.1491894	1.0047311
C	-1.9283515	3.5105242	1.4338196
C	-1.6273463	3.6277031	2.9162528
H	-2.9688518	3.7952299	1.2461025
H	-1.2986200	4.1851708	0.8423131
H	-2.2648444	2.9493982	3.4928150
H	-1.7930187	4.6506007	3.2659341
H	-0.5906137	3.3490057	3.1298891
C	6.2277411	-3.2788882	-3.6879152
H	4.6786488	-2.4329707	-4.8021623
C	5.1279950	-2.5239735	-3.8153352
H	6.7106250	-3.4526461	-2.7320798
H	6.6613055	-3.7657198	-4.5561268
C	4.4274226	-1.8432300	-2.7396369
C	5.0338580	-1.3496103	-1.6435962
H	6.1137503	-1.4232532	-1.5565025
O	3.0572732	-1.7939012	-2.9232771
C	2.6607602	-0.6143279	-3.6231976
H	1.5684583	-0.6119783	-3.6839065
H	3.0570984	-0.6110852	-4.6439157
H	2.9739796	0.2927772	-3.0961532
S	4.1841937	-0.5930988	-0.3303696
C	5.5374323	-0.4144849	0.8157076
C	6.2417864	0.7912353	0.8891957
C	7.3007387	0.9327285	1.7884801
H	5.9706642	1.6271396	0.2490199
C	7.6561982	-0.1282484	2.6204994
H	7.8453505	1.8719057	1.8418853
C	5.8932853	-1.4726936	1.6582857
C	6.9523236	-1.3301499	2.5570431
H	8.4789159	-0.0166842	3.3223385
H	7.2246375	-2.1556512	3.2096502
H	5.3474721	-2.4125966	1.6211110
