40
0.00846412 (energy)
C	-0.4904917	-0.2236913	0.3156387
C	0.5648757	0.1908582	-0.3965594
H	-0.9591706	0.4276837	1.0453912
H	-0.9082162	-1.2189007	0.1863012
H	0.9817087	1.1821561	-0.2681834
C	1.2041516	-0.6968511	-1.3912576
O	0.8521128	-1.8358279	-1.6472105
O	2.2370755	-0.0181093	-1.9494653
C	2.9752306	-0.7324572	-2.9512147
C	4.0705450	-1.5595980	-2.3046331
H	3.4220597	0.0160087	-3.6138447
H	2.3143775	-1.3535226	-3.5669586
H	4.7222391	-0.9252228	-1.6948887
H	4.6766087	-2.0618755	-3.0638748
H	3.6484273	-2.3173526	-1.6369866
C	6.0839134	-4.4844788	1.7973068
H	7.3968645	-3.5444039	0.4747228
C	6.4805803	-3.4433219	1.0528466
H	5.1618220	-4.4775083	2.3688738
H	6.6789193	-5.3920197	1.8306549
C	5.7705309	-2.1858139	0.8920865
C	5.0083148	-1.6266938	1.8508047
H	4.9358549	-2.1106674	2.8201833
O	5.9100078	-1.6353705	-0.3692718
C	7.0291916	-0.7515552	-0.4385717
H	7.0471541	-0.3115637	-1.4400204
H	7.9684230	-1.2943955	-0.2898148
H	6.9469313	0.0624154	0.2890319
S	4.1101147	-0.1555646	1.6321290
C	3.1952300	-0.1534455	3.1617146
C	3.6635933	0.5745691	4.2598526
C	2.9461846	0.5785579	5.4579434
H	4.5875719	1.1432731	4.1898003
C	1.7561846	-0.1408341	5.5611652
H	3.3143425	1.1459120	6.3088707
C	1.9968564	-0.8667982	3.2685023
C	1.2803726	-0.8621715	4.4669492
H	1.1966404	-0.1352061	6.4932422
H	0.3495848	-1.4181608	4.5444947
H	1.6136557	-1.4282290	2.4195827
