40
0.00689636 (energy)
C	0.0748594	-0.3577888	0.5065875
C	-0.1166020	0.3509156	-0.6132152
H	0.5400438	0.0925929	1.3767874
H	-0.2274588	-1.3994415	0.5788867
H	0.1844377	1.3886864	-0.6860759
C	-0.7504899	-0.2627373	-1.7996984
O	-1.1404071	-1.4157474	-1.8721094
O	-0.8102770	0.6805018	-2.7722947
C	-1.4071333	0.2571985	-4.0064926
C	-0.3615029	-0.3792272	-4.9029092
H	-1.8106459	1.1527315	-4.4903668
H	-2.2503321	-0.4206904	-3.8302200
H	0.4724630	0.3102507	-5.0703797
H	-0.7937215	-0.6520033	-5.8697722
H	0.0570109	-1.2789755	-4.4409279
C	0.3852088	3.4047787	1.2493848
H	0.6266587	2.7060817	3.2013925
C	0.9531505	2.6112808	2.1677402
H	0.6260055	3.3429851	0.1933599
H	-0.3649890	4.1325408	1.5432216
C	1.9424146	1.5780611	1.9124877
C	2.8603246	1.6445646	0.9297629
H	2.9028687	2.5302285	0.3028934
O	1.8197834	0.4835474	2.7494273
C	2.6094579	0.6306945	3.9297943
H	2.5104915	-0.2878036	4.5157819
H	2.2494407	1.4640031	4.5421213
H	3.6691275	0.7699779	3.6922607
S	3.9997810	0.3782023	0.5880484
C	4.7000254	1.0271560	-0.9169989
C	5.8887053	1.7626066	-0.8791932
C	6.4391909	2.2694912	-2.0582379
H	6.3937461	1.9445079	0.0662770
C	5.8064365	2.0391216	-3.2792339
H	7.3633364	2.8406966	-2.0237757
C	4.0738956	0.7924359	-2.1455113
C	4.6251528	1.2997865	-3.3237967
H	6.2368394	2.4316265	-4.1971567
H	4.1345417	1.1143400	-4.2758542
H	3.1552175	0.2123173	-2.1924659
