40
-0.00166236 (energy)
C	0.2528677	0.5690948	0.0183228
H	-0.9983254	-0.9827285	0.6373299
C	-0.2442574	-0.6711672	-0.0826230
H	0.9763561	0.9684502	-0.6845782
H	-0.0805519	1.2296372	0.8128602
C	0.0871165	-1.6455424	-1.1083543
C	1.2933275	-1.7309550	-1.7003756
H	2.0890954	-1.0645767	-1.3812059
O	-0.9788657	-2.4533533	-1.4613274
C	-1.0266631	-3.6401525	-0.6690348
H	-1.8537362	-4.2549821	-1.0361168
H	-1.2208174	-3.4032982	0.3822330
H	-0.1040917	-4.2229348	-0.7581898
S	1.6656045	-2.8556861	-2.9712781
C	3.2884482	-2.2617112	-3.4074236
C	4.4270747	-2.8641561	-2.8634876
C	5.6990041	-2.4008161	-3.2064519
H	4.3318079	-3.6972642	-2.1714449
C	5.8374845	-1.3373376	-4.0975838
H	6.5811416	-2.8722852	-2.7809423
C	3.4335920	-1.2004745	-4.3069149
C	4.7058460	-0.7379464	-4.6490890
H	6.8279743	-0.9787659	-4.3663688
H	4.8129762	0.0870242	-5.3486960
H	2.5579455	-0.7293473	-4.7473627
C	2.7629671	3.5158204	-3.9480360
C	3.4984271	4.2255250	-3.0829952
H	2.5570114	3.8939115	-4.9435848
H	2.3517637	2.5452871	-3.6822531
H	3.9083299	5.1925772	-3.3469868
C	3.7792087	3.7105556	-1.7257575
O	3.3879411	2.6440894	-1.2827329
O	4.5353617	4.6330833	-1.0804720
C	4.9101915	4.2936875	0.2622792
C	3.8284507	4.7274559	1.2336828
H	5.8383489	4.8318477	0.4810105
H	5.1287868	3.2237455	0.3573049
H	3.6229364	5.7976902	1.1274394
H	4.1305129	4.5266452	2.2654179
H	2.8890128	4.2016187	1.0359991
