40
0.032089 (energy)
C	0.6002127	0.1046472	-0.1379903
C	-0.6639275	-0.1545035	0.2193164
H	0.8197562	0.6451390	-1.0524067
H	1.4406762	-0.2159968	0.4723148
H	-1.5017913	0.1644881	-0.3882446
C	-0.9635826	-0.8914315	1.4656189
O	-0.1318064	-1.3150209	2.2501133
O	-2.3111485	-1.0071488	1.5650857
C	-2.7868670	-1.6978520	2.7292544
C	-2.8328449	-3.1919873	2.4696605
H	-3.7977906	-1.3280502	2.9297938
H	-2.1777843	-1.4624672	3.6097099
H	-3.4455650	-3.4105286	1.5889000
H	-3.2498345	-3.7224773	3.3303252
H	-1.8321116	-3.5865869	2.2672960
C	5.4672834	-4.5977925	4.4303177
H	3.6636500	-5.4260562	5.0766113
C	4.1335807	-4.5917163	4.5598295
H	6.0136651	-3.7841256	3.9651260
H	6.0511681	-5.4274841	4.8169250
C	3.2354003	-3.5377829	4.1195607
C	3.4596534	-2.7624410	3.0419314
H	4.3401222	-2.9431383	2.4325883
O	2.1414554	-3.3683563	4.9490460
C	1.0361406	-4.1719709	4.5355399
H	0.1935163	-3.9483530	5.1964438
H	1.2679646	-5.2378985	4.6304921
H	0.7326349	-3.9439908	3.5085875
S	2.4150661	-1.4617248	2.5563614
C	3.4162324	-0.7660431	1.2562293
C	3.1906330	-1.1289039	-0.0752035
C	3.9731443	-0.5825641	-1.0946650
H	2.4050534	-1.8369728	-0.3273369
C	4.9802639	0.3316106	-0.7876239
H	3.7940637	-0.8677905	-2.1281466
C	4.4226069	0.1574179	1.5575682
C	5.2044768	0.7030196	0.5374487
H	5.5873816	0.7587221	-1.5818989
H	5.9851731	1.4203483	0.7771486
H	4.6023404	0.4584198	2.5870367
