18
-0.00407357 (energy)
C	0.1371390	-2.0389372	1.0660227
O	-0.5126392	-2.6935857	0.2555275
H	0.7144627	-2.5610915	1.8493418
C	0.1674273	-0.5318537	1.1689123
Cl	-0.0911858	0.1891726	-0.4440236
H	1.1703748	-0.2310950	1.4884009
C	-0.9003084	-0.0377364	2.1497353
H	-1.9006208	-0.3609016	1.8372277
H	-0.9019490	1.0587895	2.1545380
N	-0.6745740	-0.4858790	3.5322933
H	-1.0384628	-1.4341741	3.6494890
H	-1.2499059	0.0844466	4.1570671
O	2.0567397	-1.7694779	5.9742810
H	1.5508255	-0.9874141	5.6951992
C	3.1134515	-1.9342322	5.0466447
H	3.7039578	-2.8079643	5.3321511
H	3.7509996	-1.0468156	5.0578349
H	2.7008919	-2.0870544	4.0463594
