11
-0.00279816 (energy)
C	1.2276105	0.5933793	-0.3758066
H	1.4861681	0.8548458	-1.3950530
C	0.0707420	0.0339523	-0.0199930
H	-0.6817140	-0.1873335	-0.7706036
H	-0.1605993	-0.2169305	1.0086574
O	2.2321527	0.9082202	0.4925040
H	1.9575247	0.6571974	1.3913689
C	4.6324198	-1.3056853	-0.2258224
H	4.0941595	-0.8770216	-1.0862029
H	4.2703497	-0.9903620	0.7657582
O	5.5705472	-2.0809088	-0.3625141
