29
-0.0008037 (energy)
C	-0.1302998	-0.2301213	2.6187630
C	0.5180118	0.6043149	1.7963971
H	-0.0334448	-0.1366773	3.6950415
H	-0.7696280	-1.0220440	2.2369495
H	1.1552476	1.3934449	2.1760104
C	0.3863987	0.4771143	0.3292148
O	-0.2898912	-0.3579496	-0.2469896
O	1.1484392	1.4433685	-0.2407545
C	1.1362197	1.4728675	-1.6752050
C	2.1904969	0.5319304	-2.2275455
H	1.3662163	2.5002759	-1.9759867
H	0.1415053	1.2369998	-2.0708051
H	3.1775427	0.7812911	-1.8244510
H	2.2295705	0.5910342	-3.3188858
H	1.9818054	-0.5036561	-1.9409522
C	6.4412752	0.6574208	-1.1762140
H	5.8371570	-0.1725755	-0.8221494
H	6.9266705	0.5339106	-2.1373085
H	6.0380940	1.8076708	0.5189372
C	6.5600039	1.7658309	-0.4365900
C	7.3206986	2.9504455	-0.7630050
C	8.0490115	3.1632751	-1.8642475
H	7.2823069	3.7429450	-0.0169364
H	8.1510809	2.4411643	-2.6622731
O	8.7269241	4.3401492	-2.0514100
C	9.4409101	4.3702181	-3.2838569
H	9.9513563	5.3348305	-3.3576152
H	8.7549463	4.2781708	-4.1328780
H	10.1965802	3.5778523	-3.3147912
