29
-0.000681283 (energy)
C	-0.8889958	-0.9611584	-2.2833560
C	-1.1217762	-1.2654913	-1.0003625
H	-1.3805087	-1.5062316	-3.0819788
H	-0.2050355	-0.1640744	-2.5635687
H	-1.8029380	-2.0595538	-0.7203888
C	-0.4517976	-0.5228409	0.0885475
O	0.3389560	0.3922555	-0.0664317
O	-0.8727787	-1.0455112	1.2670248
C	-0.3226873	-0.4362220	2.4438144
C	0.9985288	-1.0897427	2.8033171
H	-1.0434998	-0.5944971	3.2527113
H	-0.2130010	0.6471927	2.3182316
H	0.8719935	-2.1703509	2.9266054
H	1.3973669	-0.6726858	3.7323141
H	1.7377524	-0.9442088	2.0092795
C	6.0943226	-1.0965542	-1.3398286
H	6.9486600	-0.4395113	-1.2071013
H	5.1904470	-0.8384116	-0.8004427
H	7.1333117	-2.3528918	-2.6441619
C	6.1864639	-2.1657930	-2.1385473
C	5.1490734	-3.1318634	-2.4196943
C	3.9023806	-3.1405013	-1.9358002
H	5.4358912	-3.9307219	-3.1021225
H	3.5208069	-2.3938949	-1.2533873
O	3.0112180	-4.1219501	-2.2853937
C	1.7399241	-3.9528226	-1.6650606
H	1.0904929	-4.7698561	-1.9924261
H	1.2815572	-3.0057863	-1.9698191
H	1.8300491	-4.0008496	-0.5744604
