31
-0.00283166 (energy)
C	1.7710735	-0.5904094	-1.6666408
O	1.9731312	-1.1318271	-2.7560821
O	2.6777144	-0.6588620	-0.6297849
H	3.4393357	-1.2243362	-0.8836435
N	0.0000000	0.0000000	0.0000000
C	-0.6465750	-2.2663836	-0.5573894
H	-0.2941629	-2.2156335	-1.5795584
H	-1.1041462	-3.1986557	-0.2521429
C	-1.0545684	-1.3883547	1.7440009
H	-1.8710456	-0.6863353	1.9578466
H	-1.4330551	-2.4000676	1.9028451
H	-0.2614707	-1.2035028	2.4793744
C	0.2688885	2.3317159	-0.0096310
C	0.2196330	1.1174498	0.9323017
C	0.5615638	0.2712017	-1.3211878
C	0.9691494	1.7806255	-1.2722010
H	-0.7505773	2.6558071	-0.2479561
H	0.8050878	3.1810144	0.4244517
H	-0.5940441	1.1899136	1.6575245
H	1.1656121	1.0084752	1.4863189
H	-0.1798687	0.0728357	-2.1046324
H	2.0552392	1.8703070	-1.1666878
H	0.6755037	2.3016327	-2.1868825
C	-0.5472480	-1.2439527	0.3256981
C	4.4350356	2.9355563	-3.3136799
H	4.9087739	2.0231450	-3.7231437
O	3.8132070	2.8854075	-2.2465218
C	4.6107936	4.1802241	-4.1376880
H	4.1978733	4.0283289	-5.1439045
H	4.1136495	5.0276672	-3.6609650
H	5.6788657	4.4019752	-4.2636313
