31
-0.00319888 (energy)
C	-2.0487448	-0.5058364	1.3452696
O	-3.2743812	-0.3741513	1.3815592
O	-1.2697142	-0.4740065	2.4827457
H	-1.8273586	-0.2871471	3.2691225
N	0.0000000	0.0000000	0.0000000
C	-1.1669135	2.1170522	-0.1471048
H	-2.1569475	1.6810348	-0.1107608
H	-1.1189887	3.1943960	-0.2404398
C	1.3294198	2.0725331	-0.1357638
H	1.9055530	1.7701776	-1.0199854
H	1.2013711	3.1561190	-0.1743889
H	1.9344892	1.8337193	0.7478692
C	0.7297736	-2.1994470	-0.3730368
C	1.2010126	-0.8358046	0.1584880
C	-1.2288163	-0.7850211	0.0905194
C	-0.7458492	-2.2728112	0.0800683
H	0.7954136	-2.2121247	-1.4669632
H	1.3244351	-3.0319674	0.0149488
H	2.0378469	-0.4345898	-0.4177104
H	1.5127366	-0.9088542	1.2126128
H	-1.8918950	-0.5641685	-0.7547069
H	-0.8065962	-2.6916223	1.0898574
H	-1.3658318	-2.8874736	-0.5772979
C	-0.0225583	1.3945328	-0.0880176
C	4.6390566	-1.1155531	-2.4130819
H	5.0162719	-0.0761710	-2.4575376
O	3.7221848	-1.4094476	-1.6378501
C	5.3141249	-2.0880533	-3.3391512
H	6.3905594	-2.1280349	-3.1252887
H	4.8807720	-3.0843939	-3.2292089
H	5.2100244	-1.7530100	-4.3796906
