11
-0.000380154 (energy)
C	-1.1048376	0.8830011	0.0000000
H	-1.0161639	1.9629164	-0.0000005
C	-0.0642356	0.0493021	0.0000002
H	0.9483103	0.4408689	0.0000001
H	-0.1834678	-1.0279009	-0.0000024
O	-2.4108753	0.4874526	0.0000010
H	-2.4422577	-0.4848674	-0.0000162
C	4.0397383	-0.1780363	-0.2705934
H	4.0967478	0.7356034	0.3423861
H	4.6526292	-1.0238449	0.0797328
O	3.3417178	-0.2487314	-1.2743406
