19
0.000955966 (energy)
C	0.9040913	1.0205140	-0.4571365
H	0.9175081	1.9402317	0.1233640
C	0.0494817	-0.0094567	-0.0674443
H	-0.5891696	0.1125996	0.8030474
C	0.0167751	-1.1915943	-0.7974463
H	-0.6475619	-1.9983467	-0.5009319
C	0.8389401	-1.3405647	-1.9156261
H	0.7973365	-2.2711727	-2.4752753
C	1.7064279	-0.3174074	-2.3194694
N	2.4912366	-0.5045458	-3.4459761
H	3.1428373	0.2035508	-3.7493461
H	2.4672298	-1.3821586	-3.9452141
C	2.6413344	2.0175117	-1.9655372
H	2.5352360	2.8663739	-1.2816520
H	2.3987578	2.3730869	-2.9720998
H	3.6877988	1.6973723	-1.9326211
C	1.7362579	0.8796459	-1.5816850
Br	5.2846742	-0.5783942	0.5918279
H	5.8191767	0.5309093	-0.1755467
