31
-0.00703769 (energy)
C	2.4932093	0.1946636	-0.0948128
O	3.4250705	0.8161178	-0.6108283
O	2.5765011	-1.1503610	0.1979757
H	3.4375906	-1.5100432	-0.1076805
N	0.0000000	0.0000000	0.0000000
C	0.3396268	0.2521203	-2.3846018
H	1.2158463	0.8802991	-2.2885279
H	0.0096877	0.0378529	-3.3930202
C	-1.5560378	-1.1357083	-1.5395114
H	-2.4649997	-0.6805296	-1.1250276
H	-1.7194996	-1.2969953	-2.6068976
H	-1.4333111	-2.1164853	-1.0631051
C	-0.3008214	0.4244484	2.2888082
C	-0.6405501	-0.5914186	1.1857650
C	1.1685877	0.8028530	0.3525215
C	1.1193859	0.9037539	1.9127407
H	-1.0090739	1.2600204	2.2521719
H	-0.3389798	-0.0125466	3.2912176
H	-1.7178449	-0.6969919	1.0389329
H	-0.2265694	-1.5846118	1.4221426
H	1.1174458	1.7897748	-0.1231114
H	1.8679304	0.2371263	2.3532581
H	1.3323871	1.9204310	2.2523238
C	-0.3424669	-0.2563154	-1.3304122
C	6.1685946	-2.2781226	-1.5415131
H	6.7012433	-1.9082661	-0.6448111
O	4.9922259	-1.9549481	-1.7408293
C	6.9717090	-3.1669265	-2.4493198
H	7.3240431	-4.0494066	-1.8987414
H	6.3704475	-3.4835302	-3.3042019
H	7.8656865	-2.6363611	-2.8030398
