31
-0.0102252 (energy)
C	2.2689775	0.6902460	-0.7989229
O	2.8723231	1.2717359	-1.7037357
O	2.7957097	-0.4043835	-0.1461647
H	3.6591360	-0.6514568	-0.5433068
N	0.0000000	0.0000000	0.0000000
C	-0.1633237	-0.5586839	-2.3508370
H	0.4904175	0.2378773	-2.6820652
H	-0.5823492	-1.1898170	-3.1239907
C	-1.3890746	-1.9275620	-0.6604233
H	-2.3071615	-1.5651513	-0.1798289
H	-1.6774393	-2.4954002	-1.5472448
H	-0.9017746	-2.6171095	0.0402987
C	-0.0169911	1.1456484	2.0485346
C	-0.2239653	-0.2481810	1.4333056
C	0.9205944	1.1117940	-0.2255249
C	1.1112864	1.7562729	1.1869798
H	-0.9362909	1.7338308	1.9481658
H	0.2480109	1.1035622	3.1093117
H	-1.2301304	-0.6337481	1.6128586
H	0.4996542	-0.9716949	1.8414593
H	0.4988743	1.8229266	-0.9461492
H	2.0874750	1.4759963	1.5959637
H	1.0683764	2.8470594	1.1353845
C	-0.4734074	-0.7883573	-1.0523099
C	7.0065516	-0.8829457	-0.6544678
H	7.1891947	-0.0084455	-0.0014182
O	5.8495825	-1.2438892	-0.8976846
C	8.2381082	-1.5569517	-1.1911823
H	8.8711612	-1.9018908	-0.3627453
H	7.9652828	-2.4052236	-1.8225125
H	8.8370326	-0.8425202	-1.7714327
