31
-0.00331433 (energy)
C	2.0487449	-0.0152216	-1.4371461
O	3.2743813	0.1209337	-1.4262081
O	1.2697143	0.4037284	-2.4951376
H	1.8273588	0.8482754	-3.1701804
N	0.0000000	0.0000000	0.0000000
C	1.1669135	1.9390656	0.8623076
H	2.1569475	1.5417736	0.6790288
H	1.1189886	2.9195153	1.3184870
C	-1.3294199	1.9011102	0.8364240
H	-1.9055530	1.3145675	1.5639089
H	-1.2013711	2.9061373	1.2433278
H	-1.9344892	1.9789188	-0.0755985
C	-0.7297735	-2.1943903	-0.4017151
C	-1.2010126	-0.7311933	-0.4347920
C	1.2288163	-0.7067191	-0.3535533
C	0.7458493	-2.1083591	-0.8525865
H	-0.7954136	-2.5804482	0.6219035
H	-1.3244350	-2.8440047	-1.0510409
H	-2.0378469	-0.5512462	0.2438808
H	-1.5127365	-0.4393057	-1.4503298
H	1.8918950	-0.7882699	0.5162357
H	0.8065963	-2.1565446	-1.9447197
H	1.3658318	-2.9107852	-0.4450911
C	0.0225583	1.2803285	0.5596676
C	0.7705160	-1.0414095	3.6575434
H	0.7327606	0.0482687	3.8466432
O	1.3094275	-1.4742452	2.6327312
C	0.1356024	-1.9027213	4.7130550
H	-0.9225381	-1.6344509	4.8331239
H	0.2186406	-2.9583466	4.4459657
H	0.6187892	-1.7284126	5.6836014
