11
0.0327808 (energy)
C	1.1633034	-0.5041996	0.6267895
H	2.1292599	-0.5761548	0.1411656
C	0.0657608	-0.0291156	0.0372118
H	0.1050024	0.3156569	-0.9914601
H	-0.8880045	0.0310178	0.5483855
O	1.2134990	-0.9596059	1.9121993
H	0.3284162	-0.8764735	2.3073049
C	3.5924909	-0.1178890	-0.3177568
H	3.9168244	0.2229221	0.6784294
H	3.1595308	0.6591820	-0.9677276
O	3.7056732	-1.2826967	-0.6785221
