11
-0.000188701 (energy)
C	-1.1672981	0.7503462	-0.2734096
H	-1.2022230	1.8333021	-0.2815904
C	-0.0676396	0.0416030	-0.0158426
H	0.8679469	0.5468065	0.2032944
H	-0.0625736	-1.0421662	-0.0146588
O	-2.3863089	0.2074988	-0.5589306
H	-2.3079919	-0.7619967	-0.5406045
C	4.3392678	-0.4734660	0.1209974
H	3.6592530	0.3824127	0.2580474
H	5.4021869	-0.2181699	-0.0160526
O	3.9403046	-1.6312947	0.1209974
