11
-0.00244964 (energy)
C	-1.1641472	0.4571642	-0.6603933
H	-1.4093382	1.5034027	-0.7994850
C	-0.0670849	0.0246639	-0.0380555
H	0.6464717	0.7356919	0.3667283
H	0.1522971	-1.0293604	0.0863918
O	-2.1167581	-0.3569005	-1.2007859
H	-1.8563255	-1.2825060	-1.0530684
C	3.4594866	-1.6847159	0.4435166
H	3.3171659	-0.6008831	0.5805666
H	4.5021474	-2.0130931	0.3064667
O	2.5213600	-2.4718991	0.4435166
