31
-0.00241621 (energy)
C	1.7710735	-0.6190163	1.6562288
O	1.9731312	-0.9045457	2.8388057
O	2.6777144	0.0998996	0.9059516
H	3.4393357	0.3699008	1.4638983
N	0.0000000	0.0000000	0.0000000
C	-0.6465750	1.3778675	1.8837884
H	-0.2941629	0.6819530	2.6341938
H	-1.1041462	2.2882380	2.2492090
C	-1.0545684	2.1845636	-0.4435649
H	-1.8710456	1.7842429	-1.0586296
H	-1.4330551	3.0616837	0.0850699
H	-0.2614707	2.5156478	-1.1257142
C	0.2688885	-1.7923887	-1.4914204
C	0.2196330	-0.2567441	-1.4324674
C	0.5615638	-1.0569957	0.8377634
C	0.9691494	-2.1817933	-0.1700016
H	-0.7505773	-2.1938493	-1.5171746
H	0.8050878	-2.1639660	-2.3698656
H	-0.5940441	0.1539095	-2.0345992
H	1.1656121	0.1828507	-1.7868217
H	-0.1798687	-1.4086271	1.5654240
H	2.0552392	-2.1826707	-0.3084755
H	0.6755037	-3.1688539	0.1957880
C	-0.5472480	1.1622777	0.5500982
C	6.1914750	-0.3647661	-0.1813405
H	5.9904114	-1.4068315	-0.4947989
O	5.2523182	0.4049087	0.0501704
C	7.6433457	0.0075337	-0.0693478
H	8.1464671	-0.1399281	-1.0343197
H	7.7480189	1.0484378	0.2439233
H	8.1465334	-0.6479675	0.6537936
