11
-0.00262384 (energy)
C	0.5976529	0.1943405	-1.2670438
H	0.7235302	1.1638609	-1.7342323
C	0.0344400	0.0095562	-0.0726600
H	-0.3318874	0.8593892	0.4949331
H	-0.0781839	-0.9731737	0.3702174
O	1.0867056	-0.8080711	-2.0532953
H	0.9530238	-1.6563650	-1.5962204
C	3.7842152	-2.5899034	0.1320069
H	4.7088914	-2.5418563	0.7289965
H	3.3096942	-1.6201050	-0.0872576
O	3.3151507	-3.6504707	-0.2615849
