31
-0.00400095 (energy)
C	-2.0487448	0.5058364	-1.3452697
O	-3.2743812	0.3741512	-1.3815592
O	-1.2697142	0.4740064	-2.4827458
H	-1.8273586	0.2871469	-3.2691225
N	0.0000000	0.0000000	0.0000000
C	-1.1669135	-2.1170522	0.1471049
H	-2.1569475	-1.6810348	0.1107608
H	-1.1189887	-3.1943960	0.2404400
C	1.3294198	-2.0725331	0.1357639
H	1.9055530	-1.7701776	1.0199855
H	1.2013711	-3.1561190	0.1743890
H	1.9344892	-1.8337193	-0.7478691
C	0.7297736	2.1994470	0.3730367
C	1.2010126	0.8358046	-0.1584881
C	-1.2288163	0.7850211	-0.0905194
C	-0.7458492	2.2728112	-0.0800684
H	0.7954136	2.2121248	1.4669631
H	1.3244351	3.0319674	-0.0149489
H	2.0378469	0.4345899	0.4177103
H	1.5127366	0.9088541	-1.2126128
H	-1.8918950	0.5641685	0.7547069
H	-0.8065962	2.6916222	-1.0898575
H	-1.3658318	2.8874736	0.5772978
C	-0.0225583	-1.3945328	0.0880176
C	4.0634322	-0.2655103	2.9822144
H	4.1011876	-1.3541489	2.7872183
O	3.5245207	0.4917284	2.1672444
C	4.6983458	0.1828520	4.2686567
H	5.7564864	-0.1103057	4.2897307
H	4.6153077	1.2661652	4.3787198
H	4.2151591	-0.3128909	5.1210550
