29
0.00807091 (energy)
C	0.1237060	-0.0013060	2.6291727
C	0.2690967	-0.9520337	1.6975847
H	0.2196297	-0.2369126	3.6835807
H	-0.0935563	1.0293887	2.3606038
H	0.4854182	-1.9791363	1.9643563
C	0.1381999	-0.6312912	0.2601857
O	-0.1036829	0.4736190	-0.1952013
O	0.3304318	-1.7770370	-0.4394795
C	0.2436357	-1.6507669	-1.8660804
C	-1.1970076	-1.7986957	-2.3184159
H	0.8486532	-2.4558619	-2.2958615
H	0.6766783	-0.7043369	-2.2100773
H	-1.6142497	-2.7486396	-1.9685003
H	-1.2665827	-1.7629713	-3.4092536
H	-1.8231741	-1.0032475	-1.9021167
C	3.5722378	-2.1367691	0.1962984
H	2.8893472	-2.9529889	0.4123082
H	4.5315336	-2.4022580	-0.2324591
H	2.2311649	-0.6950687	0.8906982
C	3.2153709	-0.8745023	0.4590560
C	4.0027850	0.3158696	0.2321009
C	5.2353244	0.3816108	-0.2826765
H	3.5202826	1.2492391	0.5187374
H	5.7986898	-0.4856540	-0.5976022
O	5.8740987	1.5836853	-0.4458092
C	7.1751616	1.4399828	-1.0081175
H	7.6153757	2.4365660	-1.1056168
H	7.1202464	0.9891166	-2.0048922
H	7.8180894	0.8424970	-0.3527608
