11
-0.000773708 (energy)
C	-1.0992712	0.6813006	-0.5725289
H	-1.3307987	0.6740542	-1.6310291
C	-0.0633462	0.0395273	-0.0313332
H	0.6104450	-0.5353648	-0.6590897
H	0.1438074	0.0647202	1.0321683
O	-1.9987937	1.4273431	0.1320795
H	-1.7528924	1.4055688	1.0730627
C	3.1359924	1.1902901	-1.5411988
H	3.0886179	0.8460361	-2.5866538
H	3.0813204	2.2812303	-1.3976150
O	3.2423204	0.4122699	-0.6014554
