11
-0.00177436 (energy)
C	-1.3384162	-0.4482951	-0.0896136
H	-1.6203118	-1.4742364	-0.2946973
C	-0.0771272	-0.0241853	-0.0048348
H	0.7432465	-0.7214193	-0.1442108
H	0.1750942	1.0093901	0.2017781
O	-2.4336293	0.3499768	0.0699588
H	-2.1342206	1.2576219	0.2514133
C	4.3935424	-0.9913160	-0.8981145
H	5.4201898	-0.6048345	-0.9998916
H	4.2129198	-1.9823976	-1.3440839
O	3.5119905	-0.3613475	-0.3273741
