18
-0.0010749 (energy)
C	1.5761332	1.4356195	-0.8759437
O	1.5407402	2.2824243	0.0125088
H	2.3863185	1.4670604	-1.6257089
C	0.5424127	0.3609043	-1.1192822
Cl	-0.2165837	-0.1086181	0.4272607
H	1.0564645	-0.5284649	-1.4977072
C	-0.5212727	0.8508465	-2.1065792
H	-1.0174042	1.7547784	-1.7331061
H	-1.2931709	0.0793462	-2.2131413
N	0.0127458	1.1306671	-3.4481377
H	0.4261363	2.0656758	-3.4648841
H	-0.7701053	1.1888245	-4.1041731
O	-3.9147026	-2.5822993	-3.2002622
H	-3.8218682	-3.3469405	-3.7936974
C	-3.1619723	-2.8659677	-2.0352634
H	-3.2451293	-2.0235632	-1.3445689
H	-2.1129514	-3.0113248	-2.3045724
H	-3.5546606	-3.7666050	-1.5569551
