11
-0.000726872 (energy)
C	-0.1923041	-0.7079299	1.2092194
H	-0.2328064	-1.7885552	1.2776938
C	-0.0110819	-0.0391470	0.0700116
H	0.1067898	-0.5772394	-0.8654758
H	0.0251600	1.0433564	0.0318603
O	-0.3496656	-0.1221149	2.4316150
H	-0.3066294	0.8436144	2.3225013
C	3.0724705	-1.3531441	0.9761477
H	3.0726818	-2.4495560	0.8683882
H	2.5200473	-0.9615806	1.8452061
O	3.6478621	-0.6186922	0.1828988
