29
0.00879775 (energy)
C	-2.5277172	0.6395499	-0.3598271
C	-1.4625697	0.5939223	-1.1699237
H	-3.4994469	0.9411667	-0.7356686
H	-2.4532474	0.3777933	0.6925994
H	-1.5359211	0.8546841	-2.2185059
C	-0.1377541	0.1830279	-0.6579125
O	0.1033484	-0.1373146	0.4935914
O	0.7397630	0.2334187	-1.6906964
C	2.0877999	-0.1421940	-1.3738697
C	2.8598100	1.0593151	-0.8616983
H	2.5447721	-0.5054351	-2.3002435
H	2.1131767	-0.9705761	-0.6564237
H	2.8261895	1.8766744	-1.5895160
H	3.9046972	0.7972389	-0.6730967
H	2.4223314	1.4409860	0.0662388
C	3.5026826	-1.7544452	2.2265335
H	2.9842284	-2.6531507	2.5470770
H	3.2857444	-0.8437071	2.7724820
H	4.5225812	-2.7609786	0.7080260
C	4.3622296	-1.8034392	1.2025747
C	5.1268663	-0.7051006	0.6571410
C	5.1204806	0.5663899	1.0715591
H	5.7713873	-0.9639541	-0.1817482
H	4.5169037	0.9240531	1.8940425
O	5.8990281	1.5162810	0.4622985
C	5.7496400	2.8053811	1.0500993
H	6.3987507	3.5018907	0.5115804
H	6.0571383	2.7913054	2.1013378
H	4.7163449	3.1571147	0.9583256
