31
-0.0014512 (energy)
C	2.4932093	0.0152215	-0.2159900
O	3.4250705	-0.1209339	-1.0121929
O	2.5765011	-0.4037286	1.0952297
H	3.4375906	-0.8482757	1.2538955
N	0.0000000	0.0000000	0.0000000
C	0.3396268	-1.9390656	-1.4106435
H	1.2158463	-1.5417737	-1.9066254
H	0.0096877	-2.9195152	-1.7292918
C	-1.5560378	-1.9011101	0.2137966
H	-2.4649997	-1.3145673	0.0268421
H	-1.7194996	-2.9061372	-0.1802180
H	-1.4333111	-1.9789187	1.3013775
C	-0.3008214	2.1943903	0.7768210
C	-0.6405501	0.7311933	1.1050661
C	1.1685877	0.7067191	-0.5190304
C	1.1193859	2.1083590	0.1736966
H	-1.0090739	2.5804482	0.0348763
H	-0.3389798	2.8440047	1.6564746
H	-1.7178449	0.5512463	1.1230792
H	-0.2265694	0.4393057	2.0833853
H	1.1174458	0.7882699	-1.6115462
H	1.8679304	2.1565445	0.9712717
H	1.3323871	2.9107851	-0.5369801
C	-0.3424669	-1.2803285	-0.4432305
C	3.2297673	-4.7921954	2.2604291
H	3.1447561	-5.5095366	1.4221108
O	3.3869817	-5.2043096	3.4151835
C	3.1403217	-3.3407629	1.8804013
H	2.1828352	-3.1393512	1.3817032
H	3.2337461	-2.7074758	2.7651589
H	3.9311909	-3.0893098	1.1612973
