11
-0.00156215 (energy)
C	-1.2017924	0.2749425	-0.6931514
H	-1.3523016	1.1447416	-1.3215433
C	-0.0694358	0.0144076	-0.0390898
H	0.7742661	0.6930662	-0.1175971
H	0.0524936	-0.8646144	0.5830326
O	-2.3135487	-0.5155529	-0.6569835
H	-2.1336314	-1.2807451	-0.0838329
C	4.2860318	-0.6219370	-0.6812272
H	4.3194223	-0.5015772	-1.7758184
H	5.0317424	-1.3128343	-0.2565715
O	3.4742311	-0.0274530	0.0168467
