11
-0.000978187 (energy)
C	-1.1641472	0.3211405	0.7361978
H	-1.4093382	-0.1109452	1.6991430
C	-0.0670849	0.0193899	0.0409946
H	0.6464717	-0.6988974	0.4327523
H	0.1522971	0.4680256	-0.9208683
O	-2.1167581	1.2089593	0.3281497
H	-1.8563255	1.5702498	-0.5367405
C	3.8356419	-0.1695368	1.7764268
H	3.8831703	-1.1230735	2.3261904
H	4.2382835	0.7064803	2.3095587
O	3.3665785	-0.0887469	0.6480689
