29
0.010236 (energy)
C	-2.5593607	0.2764157	0.5487451
C	-1.4563435	0.9293553	0.9359153
H	-3.5372439	0.5724990	0.9128428
H	-2.5104964	-0.5650605	-0.1376905
H	-1.5041845	1.7676986	1.6198697
C	-0.1231517	0.5259076	0.4399763
O	0.0923932	-0.3945562	-0.3300872
O	0.7945830	1.3549047	0.9965235
C	2.1568733	1.1098759	0.6186427
C	2.7740030	0.0663901	1.5309100
H	2.6943798	2.0576178	0.7273076
H	2.2322388	0.8163782	-0.4348129
H	2.6921037	0.3746679	2.5783748
H	3.8297558	-0.0847097	1.2888383
H	2.2538760	-0.8923815	1.4395193
C	9.1517070	-1.0189540	-1.6093083
H	9.9260285	-1.1709514	-2.3553226
H	9.4757078	-0.9334132	-0.5786424
H	7.6284696	-1.0415122	-3.0370362
C	7.8679573	-0.9453261	-1.9784679
C	6.7259574	-0.7474766	-1.1152144
C	6.7354939	-0.6006970	0.2140094
H	5.7633532	-0.7180113	-1.6238130
H	7.6369473	-0.6149323	0.8105714
O	5.5727180	-0.4187695	0.9172040
C	5.7958314	-0.2831431	2.3177151
H	4.8263720	-0.1425256	2.8043855
H	6.4173678	0.5936720	2.5292414
H	6.2582981	-1.1877794	2.7270994
