31
-0.000866848 (energy)
C	2.4932093	-0.0881764	0.1977582
O	3.4250705	-0.2325497	0.9925121
O	2.5765011	0.7539714	-0.8910959
H	3.4375906	1.2259760	-0.8881489
N	0.0000000	0.0000000	0.0000000
C	0.3396268	1.3396570	1.9887709
H	1.2158463	0.7966889	2.3189595
H	0.0096877	2.1519942	2.6235358
C	-1.5560378	1.8595819	0.4493150
H	-2.4649997	1.2444697	0.4243852
H	-1.7194996	2.6692375	1.1633071
H	-1.4333111	2.3046727	-0.5460646
C	-0.3008214	-1.7963638	-1.4804987
C	-0.6405501	-0.3091421	-1.2885053
C	1.1685877	-0.8416176	0.2460168
C	1.1193859	-1.9218016	-0.8843227
H	-1.0090739	-2.4128997	-0.9153384
H	-0.3389798	-2.1059424	-2.5292839
H	-1.7178449	-0.1338863	-1.2438866
H	-0.2265694	0.2997476	-2.1079932
H	1.1174458	-1.2919127	1.2447538
H	1.8679304	-1.6942944	-1.6502786
H	1.3323871	-2.9189013	-0.4909511
C	-0.3424669	1.0515214	0.8543986
C	-2.1836254	1.4470420	6.3095473
H	-2.0834709	2.5273636	6.5273940
O	-3.0405430	0.7739821	6.8932380
C	-1.2259956	0.9026375	5.2869784
H	-0.1906028	1.0695396	5.6127885
H	-1.3953761	-0.1654530	5.1350914
H	-1.3480963	1.4348837	4.3342881
