29
0.00597479 (energy)
C	1.4074254	-2.2053938	0.2885234
C	1.6874370	-0.9048985	0.4407838
H	2.1643565	-2.9615711	0.4666787
H	0.4199432	-2.5424843	-0.0162919
H	2.6710303	-0.5682622	0.7442997
C	0.6559500	0.1261825	0.1978178
O	-0.4921190	-0.0946670	-0.1484106
O	1.2199345	1.3384525	0.4248446
C	0.3529764	2.4666705	0.2399786
C	0.3661029	2.9050039	-1.2124796
H	0.7391792	3.2736765	0.8712667
H	-0.6647824	2.2485017	0.5837212
H	1.3885334	3.1203485	-1.5398751
H	-0.2455968	3.8006472	-1.3528017
H	-0.0173394	2.1142349	-1.8650007
C	4.9402480	-3.1921860	-0.6341964
H	5.0144275	-4.0507580	-1.2949277
H	4.7272912	-3.3948687	0.4089407
H	5.3204061	-1.8407975	-2.1796403
C	5.1090780	-1.9560121	-1.1169838
C	5.0427385	-0.7173898	-0.3754119
C	4.8004576	-0.5719070	0.9317246
H	5.2114505	0.1825140	-0.9652058
H	4.6206092	-1.4006195	1.6022447
O	4.7648481	0.6687552	1.5140623
C	4.4926856	0.6097273	2.9112197
H	4.4810968	1.6325091	3.2988482
H	5.2752655	0.0515882	3.4364864
H	3.5113735	0.1600879	3.0974689
