11
0.0284689 (energy)
C	-0.2740314	-1.3112929	0.4536241
H	-0.4752973	-1.5639176	1.4879127
C	-0.0155371	-0.0756059	0.0244797
H	0.0026394	0.7527249	0.7259863
H	0.1823584	0.1475019	-1.0174622
O	-0.3187224	-2.4137769	-0.3493235
H	-0.1330212	-2.1408513	-1.2644288
C	2.9267232	-0.8207619	0.6330392
H	2.9601137	-1.9175324	0.7315828
H	3.6724338	-0.2678287	1.2262815
O	2.1149224	-0.2540792	-0.0877861
