11
-0.00126258 (energy)
C	-1.3384162	-0.0725440	-0.4513717
H	-1.6203118	-0.2385643	-1.4843539
C	-0.0771272	-0.0039135	-0.0243514
H	0.7432465	-0.1167414	-0.7263704
H	0.1750942	0.1633392	1.0163184
O	-2.4336293	0.0566349	0.3523783
H	-2.1342206	0.2034954	1.2662587
C	4.1619613	0.2737061	1.2685155
H	4.0750976	-0.0892647	2.3050666
H	5.0948681	0.8087499	1.0294149
O	3.2804106	0.0944153	0.4375750
