11
-0.00145541 (energy)
C	0.3316700	-0.9359109	-1.0071856
H	0.4015254	-2.0043373	-0.8408563
C	0.0191129	-0.0523911	-0.0587093
H	-0.1841822	-0.3879105	0.9535514
H	-0.0433920	1.0117226	-0.2545097
O	0.6030732	-0.6119660	-2.3047190
H	0.5288607	0.3525722	-2.4074298
C	3.6942109	-1.1919474	0.0471277
H	3.4245988	-2.2109229	0.3676420
H	3.1177851	-0.7934955	-0.8030048
O	4.5757620	-0.5453598	0.5989710
