29
0.0102238 (energy)
C	-2.2842219	1.1267220	-0.6638385
C	-1.2664488	0.6176029	-1.3693974
H	-3.1485865	1.5518247	-1.1624863
H	-2.2768580	1.1303475	0.4231740
H	-1.2729767	0.6137470	-2.4523768
C	-0.0879306	0.0382324	-0.6900223
O	0.0659689	-0.0286834	0.5176814
O	0.7722815	-0.3915098	-1.6463564
C	1.9819064	-0.9930406	-1.1629974
C	3.0335098	0.0719437	-0.9142364
H	2.3307682	-1.6798038	-1.9411925
H	1.7979398	-1.5925407	-0.2639170
H	3.2066972	0.6605200	-1.8211594
H	3.9783818	-0.3815577	-0.6018312
H	2.7081722	0.7715720	-0.1378324
C	5.8814571	1.3961301	-1.3654305
H	5.8033808	1.4661968	-2.4462677
H	5.8356041	2.3259495	-0.8105439
H	6.0634730	-0.6832894	-1.4107363
C	6.0266670	0.2029911	-0.7780239
C	6.1441438	-0.0592777	0.6382844
C	6.1300421	0.8391289	1.6288084
H	6.2553034	-1.1093769	0.9048981
H	6.0247633	1.9031744	1.4693388
O	6.2513817	0.4542209	2.9390567
C	6.2130246	1.5577486	3.8392572
H	6.3151689	1.1700309	4.8569577
H	5.2559675	2.0855974	3.7666416
H	7.0444205	2.2447344	3.6477656
