11
-0.00103301 (energy)
C	-1.1641472	-0.1562147	0.7878549
H	-1.4093382	-1.0604222	1.3322539
C	-0.0670849	-0.0074606	0.0447310
H	0.6464717	-0.8208898	-0.0432669
H	0.1522971	0.9097223	-0.4893379
O	-2.1167581	0.8057477	0.9591848
H	-1.8563255	1.5958726	0.4549344
C	4.1784198	0.4098057	1.1247420
H	4.5404921	1.4410638	1.2630954
H	4.7166780	-0.3630817	1.6963005
O	3.2402924	0.1405725	0.3850330
