11
0.0277446 (energy)
C	1.1000140	-0.6327698	-0.6244426
H	2.1355656	-0.4057677	-0.4004271
C	0.0619670	-0.0371011	-0.0366131
H	0.2265312	0.7266874	0.7171240
H	-0.9643617	-0.2849315	-0.2811784
O	0.9947015	-1.6011759	-1.5801058
H	0.0519005	-1.7718910	-1.7485501
C	3.4426482	1.3712299	-0.2666962
H	2.9147130	2.1899013	0.2478839
H	4.0653283	1.6727518	-1.1240818
O	3.3439381	0.2040053	0.0904899
