29
-0.00171211 (energy)
C	-0.7312804	1.7036376	-1.8683420
C	-0.4839038	1.8208385	-0.5576374
H	-1.0278747	2.5648564	-2.4572579
H	-0.6435068	0.7487562	-2.3803587
H	-0.5712645	2.7717820	-0.0467790
C	-0.0797862	0.6470563	0.2455128
O	0.0598587	-0.4854467	-0.1841932
O	0.0980445	1.0612056	1.5246042
C	0.5013039	0.0435826	2.4522318
C	-0.7166681	-0.6651940	3.0144799
H	1.0416402	0.5448452	3.2619901
H	1.1991049	-0.6641357	1.9898485
H	-1.4024286	0.0544218	3.4736216
H	-0.4232484	-1.4027917	3.7667420
H	-1.2741537	-1.1760521	2.2230500
C	7.5836206	-3.3998463	-3.3772697
H	8.3215917	-3.9603791	-3.9433228
H	6.5469502	-3.6893615	-3.5040025
H	9.0328612	-2.1786496	-2.5011716
C	7.9692714	-2.4047945	-2.5705117
C	7.1183461	-1.5683968	-1.7551100
C	5.7863929	-1.6300901	-1.6523213
H	7.6397659	-0.8127806	-1.1691807
H	5.1775878	-2.3426283	-2.1911652
O	5.0960962	-0.7712811	-0.8364993
C	3.6900926	-0.9989247	-0.8671210
H	3.2143717	-0.2788184	-0.1951022
H	3.4519050	-2.0081796	-0.5142370
H	3.2928367	-0.8425585	-1.8758703
