29
-0.00161711 (energy)
C	-2.5277172	-0.6008872	-0.4212294
C	-1.4625697	-1.3117037	-0.0299770
H	-3.4994469	-1.0701688	-0.5307934
H	-2.4532474	0.4613041	-0.6400158
H	-1.5359211	-2.3699984	0.1880452
C	-0.1377541	-0.6723985	0.1192828
O	0.1033484	0.5044593	-0.0894906
O	0.7397630	-1.6255288	0.5201874
C	2.0877999	-1.1774866	0.7219851
C	2.8598100	-1.2348821	-0.5828710
H	2.5447721	-1.8558948	1.4499100
H	2.1131767	-0.1724937	1.1589460
H	2.8261895	-2.2444643	-1.0054094
H	3.9046972	-0.9515398	-0.4280432
H	2.4223314	-0.5630290	-1.3280913
C	6.9127483	-5.6582822	-0.0842294
H	6.8276239	-6.7348426	0.0297259
H	7.5249154	-5.3001827	-0.9037305
H	5.6835031	-5.2838469	1.5613472
C	6.2791421	-4.8404737	0.7639720
C	6.2903578	-3.3954257	0.7489575
C	6.9349677	-2.6027735	-0.1139746
H	5.7034395	-2.9217711	1.5346583
H	7.5426215	-2.9739175	-0.9274338
O	6.8615978	-1.2372707	-0.0157554
C	7.6163820	-0.5747335	-1.0261765
H	7.5071553	0.5037663	-0.8799560
H	7.2376489	-0.8269252	-2.0225782
H	8.6792824	-0.8269251	-0.9456784
