29
-0.00190923 (energy)
C	-1.2424610	2.2523872	0.5575806
C	-1.4393957	1.2901477	-0.3524686
H	-1.8978835	3.1153311	0.6048817
H	-0.4254858	2.1999798	1.2727510
H	-2.2530123	1.3417020	-1.0654005
C	-0.5460420	0.1137846	-0.4173913
O	0.4096618	-0.0853656	0.3131431
O	-0.9810592	-0.6820674	-1.4256559
C	-0.2266579	-1.8850495	-1.6315208
C	0.9455496	-1.6164775	-2.5565840
H	-0.9024993	-2.6110117	-2.0953669
H	0.1044006	-2.3163618	-0.6797017
H	0.5985207	-1.1876750	-3.5024300
H	1.4928249	-2.5396227	-2.7671465
H	1.6376739	-0.8931759	-2.1139486
C	2.7747172	-4.8115736	1.5272792
H	2.3355774	-5.7692002	1.7905695
H	2.2358444	-4.2082503	0.8060421
H	4.4042742	-5.0925339	2.8019451
C	3.9274854	-4.4247083	2.0851088
C	4.6378226	-3.1895654	1.8435347
C	4.2784579	-2.2006324	1.0181018
H	5.5635108	-3.0727870	2.4053280
H	3.3797680	-2.2200646	0.4175304
O	5.0482004	-1.0744372	0.8809567
C	4.4944399	-0.1424866	-0.0433932
H	5.1625536	0.7219918	-0.0960608
H	3.5112621	0.2026353	0.2944057
H	4.4224425	-0.5830923	-1.0436536
