29
-0.00206907 (energy)
C	0.8232486	-1.3508805	-2.1036248
C	-0.3605901	-1.2290222	-1.4899847
H	0.9330914	-1.9811230	-2.9795341
H	1.7055878	-0.8260625	-1.7462633
H	-1.2400693	-1.7516644	-1.8453204
C	-0.5106624	-0.3701700	-0.2958419
O	0.3831187	0.2777158	0.2219520
O	-1.8035902	-0.4424809	0.1070562
C	-2.1345635	0.3411514	1.2624976
C	-1.8577142	-0.4486577	2.5280011
H	-3.2033743	0.5701685	1.1982282
H	-1.6000298	1.2981589	1.2621862
H	-2.3993909	-1.4001330	2.5136360
H	-2.1619509	0.1175102	3.4128388
H	-0.7935471	-0.6893372	2.6160303
C	7.1289764	-4.5033018	0.4680821
H	7.6917930	-5.4318874	0.4546382
H	6.3383553	-4.4213131	1.2048058
H	8.2342462	-3.6911335	-1.1060619
C	7.4230949	-3.5265488	-0.3974588
C	6.7741334	-2.2400806	-0.5086502
C	5.7583137	-1.7825239	0.2310951
H	7.1717966	-1.5888952	-1.2858047
H	5.2940057	-2.3501970	1.0253699
O	5.2318563	-0.5342410	0.0207137
C	4.1595617	-0.2357275	0.9099153
H	3.7967513	0.7701169	0.6794408
H	4.5023532	-0.2478432	1.9502052
H	3.3321521	-0.9400372	0.7714273
