29
-0.00192148 (energy)
C	-0.1008478	2.4873907	-0.8547343
C	0.1637187	1.9294166	0.3333512
H	-0.0851880	3.5648292	-0.9787068
H	-0.3380893	1.8829704	-1.7265464
H	0.4000239	2.5309062	1.2024150
C	0.1422593	0.4607577	0.5027812
O	-0.1067285	-0.3456783	-0.3772059
O	0.4419881	0.1882710	1.7970500
C	0.4717830	-1.2037314	2.1436178
C	-0.9174705	-1.6780051	2.5270007
H	1.1449286	-1.3055172	3.0012019
H	0.8919029	-1.8083316	1.3314924
H	-1.3222166	-1.0656225	3.3394621
H	-0.8952927	-2.7227297	2.8496497
H	-1.6101096	-1.5871897	1.6843080
C	6.4535761	3.4527383	-0.3210728
H	7.0864917	4.3321347	-0.2483116
H	6.7184079	2.7206834	-1.0750791
H	5.2085116	4.0945744	1.2271613
C	5.4042640	3.3103818	0.4964796
C	4.4708152	2.2075588	0.5276184
C	4.4786099	1.1219798	-0.2533609
H	3.6840012	2.2906926	1.2760568
H	5.2154403	0.9456012	-1.0245149
O	3.5281792	0.1430770	-0.1189777
C	3.7105474	-0.9269038	-1.0417389
H	2.9181300	-1.6614564	-0.8715041
H	4.6759622	-1.4187666	-0.8808007
H	3.6311809	-0.5681256	-2.0736385
