29
-0.00209549 (energy)
C	-0.7962708	-2.3013969	-0.9986885
C	-0.4997930	-1.1131494	-1.5400262
H	-1.1124836	-3.1321068	-1.6203143
H	-0.7301087	-2.4703118	0.0731109
H	-0.5655958	-0.9440342	-2.6077208
C	-0.0689182	0.0195251	-0.6929599
O	0.0517051	-0.0146485	0.5198853
O	0.1576329	1.0818446	-1.5049758
C	0.5926969	2.2800886	-0.8464939
C	-0.6052047	3.0872018	-0.3822276
H	1.1641817	2.8585764	-1.5797694
H	1.2709387	2.0549712	-0.0152900
H	-1.2715054	3.3049017	-1.2234026
H	-0.2857474	4.0309990	0.0685913
H	-1.1931661	2.5297664	0.3537714
C	6.7379506	-2.3149235	-3.3747989
H	7.3929524	-2.6413602	-4.1770620
H	6.0449685	-3.0487777	-2.9800841
H	7.5345219	-0.3849932	-3.3714376
C	6.8085939	-1.0594133	-2.9182720
C	6.0132494	-0.4725593	-1.8639739
C	5.0574369	-1.0718807	-1.1458462
H	6.2331469	0.5719652	-1.6477306
H	4.7648922	-2.1035454	-1.2829318
O	4.3742023	-0.3961737	-0.1679717
C	3.3995285	-1.2087639	0.4795727
H	2.9016240	-0.6010892	1.2406872
H	3.8730989	-2.0623863	0.9764787
H	2.6436436	-1.5528240	-0.2346391
