40
-0.00152114 (energy)
C	0.9681350	1.4161373	-2.0748933
H	0.1243716	-0.3727107	-2.7418982
C	0.3973715	0.2209180	-1.8717849
H	1.3061238	2.0489845	-1.2611008
H	1.1308266	1.7807355	-3.0845339
C	0.1488734	-0.4011999	-0.5823826
C	-0.1308153	0.2863154	0.5409279
H	-0.2150137	1.3679096	0.4935943
O	0.2783444	-1.7782303	-0.6045434
C	-0.9624139	-2.4202755	-0.8991639
H	-0.8014541	-3.5010292	-0.8455161
H	-1.2996715	-2.1775626	-1.9122324
H	-1.7370764	-2.1553638	-0.1722241
S	-0.3642415	-0.4580042	2.0934432
C	-0.4538255	1.0102962	3.0997827
C	-1.6961049	1.5554850	3.4385861
C	-1.7672001	2.7046022	4.2288948
H	-2.6150046	1.0895926	3.0912594
C	-0.5976059	3.3098427	4.6871664
H	-2.7352045	3.1247625	4.4895494
C	0.7158570	1.6170715	3.5688683
C	0.6436101	2.7660614	4.3589620
H	-0.6535600	4.2028515	5.3046561
H	1.5557037	3.2335487	4.7209621
H	1.6890282	1.1981442	3.3236144
C	7.6049753	0.2277415	-4.6346180
C	6.8835284	0.2305596	-3.5066180
H	8.0156293	1.1487378	-5.0341393
H	7.8007126	-0.6907748	-5.1820470
H	6.6879665	1.1452539	-2.9607318
C	6.3234057	-1.0246630	-2.9618200
O	6.4555164	-2.1292723	-3.4609152
O	5.6458735	-0.7184516	-1.8276230
C	5.0343979	-1.8287765	-1.1553552
C	3.6529838	-2.0902886	-1.7256619
H	4.9503432	-1.5558218	-0.0982996
H	5.6655212	-2.7235282	-1.2072434
H	3.0350320	-1.1883949	-1.6652571
H	3.1546984	-2.8968726	-1.1805218
H	3.7104005	-2.3667479	-2.7832067
