29
-0.00169335 (energy)
C	-0.1628870	1.6717754	2.0264473
C	0.1140575	0.3655126	1.9271654
H	-0.1744802	2.1657451	2.9920287
H	-0.3833863	2.2745189	1.1490967
H	0.3336995	-0.2356917	2.8007858
C	0.1297463	-0.3082342	0.6111316
O	-0.0973407	0.2312492	-0.4584946
O	0.4344180	-1.6135790	0.8172098
C	0.4991332	-2.4259512	-0.3636929
C	-0.8781562	-2.9617652	-0.7070885
H	1.1733946	-3.2596738	-0.1418502
H	0.9356986	-1.8742001	-1.2042707
H	-1.2995514	-3.5109863	0.1412673
H	-0.8298616	-3.6300389	-1.5714505
H	-1.5716472	-2.1459819	-0.9344540
C	8.7756474	0.0895407	0.2996676
H	9.8299272	0.0157219	0.5491855
H	8.5326518	0.3891704	-0.7131212
H	8.1767637	-0.4778785	2.2176200
C	7.8459669	-0.1833653	1.2221260
C	6.4118189	-0.1328283	1.0513034
C	5.7429105	0.1956949	-0.0591493
H	5.8328006	-0.3945153	1.9358402
H	6.2238692	0.4703614	-0.9875587
O	4.3722195	0.2038894	-0.0868484
C	3.8529528	0.5802453	-1.3589820
H	2.7608970	0.5625584	-1.2991987
H	4.1667021	-0.1292467	-2.1323113
H	4.1667018	1.5962739	-1.6218225
