29
-0.00231566 (energy)
C	0.5432309	-1.0249858	2.3626591
C	-0.5395449	-0.4374837	1.8379539
H	0.5412813	-1.3802247	3.3874955
H	1.4521319	-1.1636506	1.7827155
H	-1.4453857	-0.2988453	2.4151312
C	-0.5371933	0.0470777	0.4410571
O	0.4030232	-0.0353195	-0.3308981
O	-1.7530653	0.5925320	0.1893569
C	-1.9329322	1.1145988	-1.1349398
C	-1.4468044	2.5502327	-1.2026036
H	-3.0060250	1.0790831	-1.3497566
H	-1.4343538	0.4868471	-1.8825607
H	-1.9547948	3.1639783	-0.4514795
H	-1.6336819	2.9767074	-2.1921691
H	-0.3744105	2.6122400	-0.9922381
C	6.8249081	1.0236181	4.1397051
H	7.4231676	1.1338374	5.0392337
H	6.1919584	1.8602918	3.8678270
H	7.5524732	-0.8977310	3.7679059
C	6.8894318	-0.1045964	3.4236872
C	6.1629873	-0.4066791	2.2114415
C	5.2899759	0.3826362	1.5763797
H	6.3638353	-1.3891172	1.7864439
H	5.0227740	1.3734713	1.9163151
O	4.6659293	-0.0284188	0.4269331
C	3.7756906	0.9544080	-0.0937703
H	3.3209192	0.5530466	-1.0040256
H	4.3171591	1.8701612	-0.3546609
H	2.9763656	1.1733562	0.6224552
