29
-0.00198443 (energy)
C	-0.1208163	2.0493142	-1.6472913
C	0.1307581	1.9312156	-0.3374666
H	-0.1181242	3.0214201	-2.1284264
H	-0.3342760	1.1812345	-2.2657866
H	0.3433710	2.7955904	0.2794238
C	0.1269675	0.6062835	0.3187851
O	-0.0952559	-0.4548573	-0.2391649
O	0.4078309	0.7933781	1.6323030
C	0.4511097	-0.3985393	2.4298790
C	-0.9378339	-0.7416796	2.9348874
H	1.1105298	-0.1913861	3.2791073
H	0.8938056	-1.2340278	1.8752900
H	-1.3652751	0.1015388	3.4873383
H	-0.9066290	-1.6150873	3.5923288
H	-1.6168488	-0.9544911	2.1031558
C	7.2766812	3.1006609	-1.3162737
H	8.0677911	3.8390937	-1.4061423
H	6.8726152	2.7020802	-2.2395451
H	7.3053605	3.1736144	0.7701162
C	6.8442477	2.7226392	-0.1080462
C	5.8072256	1.7584490	0.1808091
C	5.0842915	1.0623028	-0.7030563
H	5.6098569	1.5971288	1.2396618
H	5.2032819	1.1500003	-1.7739706
O	4.1246205	0.1731856	-0.2930198
C	3.4682268	-0.4652702	-1.3844075
H	2.7226368	-1.1540783	-0.9768395
H	4.1809028	-1.0439463	-1.9819715
H	2.9514472	0.2696808	-2.0110043
