29
-0.00162897 (energy)
C	2.0463372	1.5621843	0.5476660
C	1.8522697	0.5677107	-0.3276841
H	2.9983187	2.0794415	0.5992822
H	1.2619226	1.8805774	1.2295627
H	2.6333054	0.2498315	-1.0072706
C	0.5547868	-0.1377626	-0.3981927
O	-0.4162225	0.1033549	0.2987395
O	0.6505299	-1.0864497	-1.3625806
C	-0.5308410	-1.8727868	-1.5740149
C	-0.5478749	-3.0578155	-0.6267240
H	-0.4967698	-2.2294212	-2.6087066
H	-1.4378518	-1.2655910	-1.4728501
H	0.3631208	-3.6544503	-0.7409124
H	-1.4145769	-3.6962342	-0.8198377
H	-0.5831432	-2.7267916	0.4160160
C	5.4745638	7.1831272	-0.3961863
H	5.3235259	8.2582135	-0.4205074
H	5.8275078	6.7181296	-1.3092983
H	4.8744314	7.0407468	1.5984908
C	5.2272741	6.4948725	0.7240218
C	5.3765847	5.0707565	0.9192527
C	5.7895009	4.1721539	0.0189834
H	5.1193258	4.7125917	1.9150857
H	6.0676898	4.4256254	-0.9944613
O	5.8870583	2.8418753	0.3359524
C	6.3441748	2.0510527	-0.7573223
H	6.3946419	1.0098052	-0.4260679
H	7.3471360	2.3618095	-1.0693396
H	5.6458544	2.1108132	-1.5991151
