29
-0.00192227 (energy)
C	-2.4305351	1.0100174	-0.0147658
C	-1.6625784	0.4383882	-0.9509070
H	-3.4281337	1.3626579	-0.2533651
H	-2.0813925	1.1380838	1.0066852
H	-2.0096469	0.3105665	-1.9688003
C	-0.3025734	-0.0422432	-0.6260904
O	0.2270023	0.0316925	0.4697172
O	0.2330885	-0.5660076	-1.7565572
C	1.5619539	-1.0906237	-1.6240338
C	2.5835754	0.0110176	-1.8352662
H	1.6819606	-1.8567559	-2.3970640
H	1.7008202	-1.5859432	-0.6560646
H	2.4325707	0.4944320	-2.8060563
H	3.6002468	-0.3899673	-1.7948419
H	2.4846552	0.7900665	-1.0727539
C	1.8762105	3.1809388	4.4381994
H	0.9826981	3.5943002	4.8964377
H	2.8215327	3.6330673	4.7148066
H	0.7895790	1.7658668	3.3537774
C	1.7798439	2.1617523	3.5769878
C	2.8648032	1.5028401	2.8861817
C	4.1686623	1.7861791	2.9764123
H	2.5648334	0.6904279	2.2257636
H	4.5677329	2.5719857	3.6024776
O	5.1006884	1.0787393	2.2619305
C	6.4302768	1.5336918	2.4960643
H	7.1094870	0.9231575	1.8940725
H	6.7023741	1.4133204	3.5502604
H	6.5433045	2.5789403	2.1886263
