29
-0.00205539 (energy)
C	0.8232486	-1.1004875	-2.2447812
C	-0.3605901	-1.0498713	-1.6212095
H	0.9330914	-1.6260232	-3.1872433
H	1.7055878	-0.6201581	-1.8295406
H	-1.2400693	-1.5282718	-2.0341880
C	-0.5106624	-0.3337652	-0.3363764
O	0.3831187	0.2504035	0.2523625
O	-1.8035902	-0.4518447	0.0555585
C	-2.1345635	0.1939810	1.2933120
C	-1.8577142	-0.7358684	2.4597929
H	-3.2033743	0.4288615	1.2557550
H	-1.6000298	1.1446987	1.4028525
H	-2.3993909	-1.6794059	2.3363078
H	-2.1619509	-0.2750086	3.4037696
H	-0.7935471	-0.9850615	2.5196139
C	6.0116914	0.5068574	5.5668435
H	6.2855122	0.6888306	6.6017938
H	5.2256003	1.1273882	5.1526356
H	7.4149749	-1.0248808	5.3576992
C	6.6348958	-0.4459092	4.8643015
C	6.3900148	-0.8103708	3.4874515
C	5.4956789	-0.2655302	2.6557165
H	7.0127839	-1.6187597	3.1069077
H	4.8318019	0.5402639	2.9361986
O	5.3642323	-0.7078779	1.3647176
C	4.3595938	-0.0005244	0.6436363
H	4.3168153	-0.4097145	-0.3698755
H	4.6075152	1.0641941	0.5746064
H	3.3780602	-0.1353691	1.1108049
