29
-0.00165589 (energy)
C	-0.1824726	-2.2030966	-1.4286088
C	0.2995840	-0.9788611	-1.6770974
H	-0.1529287	-2.9768874	-2.1881237
H	-0.6156920	-2.4587755	-0.4649632
H	0.7312157	-0.7233183	-2.6369379
C	0.2592927	0.0762498	-0.6420885
O	-0.1945314	-0.0572056	0.4817196
O	0.8080446	1.1977019	-1.1716493
C	0.8570606	2.3333296	-0.2960840
C	-0.4404285	3.1153457	-0.3792485
H	1.6876777	2.9618735	-0.6336395
H	1.0789957	2.0333540	0.7346192
H	-0.6469723	3.4085831	-1.4137903
H	-0.3909840	4.0155897	0.2397506
H	-1.2874581	2.5077713	-0.0453000
C	2.6059608	2.4726435	-5.7740108
H	2.1554118	3.0507765	-6.5752487
H	2.5618692	2.8992081	-4.7786895
H	3.1808629	0.9372079	-7.0667184
C	3.1801897	1.2933125	-6.0369796
C	3.8191859	0.4080689	-5.0901203
C	3.9575950	0.5992380	-3.7737737
H	4.2248336	-0.5081122	-5.5169807
H	3.5906531	1.4737564	-3.2548535
O	4.5893112	-0.3262803	-2.9838506
C	4.6332479	0.0624508	-1.6139736
H	5.1492240	-0.7228944	-1.0540859
H	3.6217038	0.1672016	-1.2069581
H	5.1931589	0.9960442	-1.4925614
