29
-0.00228215 (energy)
C	-0.2700992	0.6124448	2.5455474
C	-0.0368454	-0.5321477	1.8910411
H	-0.3448728	0.6288186	3.6275034
H	-0.3911546	1.5548655	2.0174825
H	0.0837353	-1.4714827	2.4164093
C	0.0649360	-0.5548976	0.4161686
O	-0.0487175	0.4163056	-0.3122258
O	0.2997406	-1.8354874	0.0364652
C	0.4333794	-2.0454400	-1.3765911
C	-0.9293813	-2.2726134	-2.0036627
H	1.0531880	-2.9381557	-1.5101279
H	0.9613534	-1.2127691	-1.8556445
H	-1.4428181	-3.1075613	-1.5156363
H	-0.8335152	-2.4922297	-3.0707251
H	-1.5685625	-1.3921011	-1.8841932
C	5.3227062	-5.2096402	-2.3966809
H	5.6113404	-6.2200827	-2.6703790
H	5.4922182	-4.9143952	-1.3677679
H	4.6498225	-4.7700992	-4.3236472
C	4.7858891	-4.3931890	-3.3104357
C	4.3515980	-3.0296783	-3.1085828
C	4.4037310	-2.3264348	-1.9722722
H	3.9406593	-2.5414163	-3.9911231
H	4.7929295	-2.7193657	-1.0433821
O	3.9551596	-1.0321043	-1.9164131
C	4.0969608	-0.4594154	-0.6196767
H	3.7193507	0.5664599	-0.6579285
H	5.1506213	-0.4273013	-0.3219790
H	3.5078217	-1.0156062	0.1174832
