29
-0.00212415 (energy)
C	-1.7006375	1.9878826	0.2898426
C	-1.7227653	0.8491624	-0.4142201
H	-2.5368026	2.6779899	0.2571649
H	-0.8502983	2.2552255	0.9120281
H	-2.5695031	0.5821736	-1.0344248
C	-0.5830484	-0.0917012	-0.3700943
O	0.4374255	0.0687978	0.2776590
O	-0.8815905	-1.1426048	-1.1736441
C	0.1206495	-2.1666346	-1.2481121
C	1.1346294	-1.8299213	-2.3253364
H	-0.3930332	-3.0988943	-1.5049348
H	0.6044127	-2.3230145	-0.2769745
H	0.6363557	-1.6783062	-3.2884882
H	1.8696843	-2.6328273	-2.4305988
H	1.6633700	-0.9007059	-2.0905613
C	0.8040228	-3.1660076	4.8938004
H	0.1307791	-3.5290553	5.6646141
H	1.3449579	-2.2516426	5.1080241
H	0.3547100	-4.7508376	3.6109911
C	0.9363379	-3.8393467	3.7454015
C	1.7840743	-3.4920991	2.6276908
C	2.5957225	-2.4337968	2.5292305
H	1.7412905	-4.1810475	1.7852732
H	2.7094701	-1.6931115	3.3084312
O	3.3512046	-2.2197982	1.4053625
C	4.1468864	-1.0416350	1.4971646
H	4.7157401	-0.9423146	0.5681792
H	4.8561324	-1.1153350	2.3286658
H	3.5153383	-0.1538551	1.6104403
