29
-0.00142552 (energy)
C	-1.1292434	-1.4087399	1.9152324
C	-1.5349538	-0.3743240	1.1680640
H	-1.7810317	-1.8411717	2.6666729
H	-0.1410257	-1.8449710	1.7936103
H	-2.5192809	0.0609257	1.2887277
C	-0.6466751	0.2155467	0.1437890
O	0.4851607	-0.1617114	-0.1078760
O	-1.3155874	1.2369051	-0.4466357
C	-0.5993333	1.9277782	-1.4802420
C	0.2482235	3.0341491	-0.8806304
H	-1.3469544	2.3606656	-2.1530028
H	0.0074111	1.2361394	-2.0761335
H	-0.3720054	3.7166053	-0.2902959
H	0.7525977	3.6048958	-1.6654225
H	1.0055164	2.6260057	-0.2038337
C	4.3280730	-5.6047230	-2.6467703
H	4.4116448	-6.6339802	-2.9827164
H	4.4666882	-5.4233541	-1.5873096
H	3.9401983	-4.8996143	-4.5733068
C	4.0655611	-4.6303017	-3.5250092
C	3.9240133	-3.2203335	-3.2413390
C	4.0283483	-2.6229770	-2.0493866
H	3.7092813	-2.5953220	-4.1070169
H	4.2387225	-3.1534647	-1.1312186
O	3.8706591	-1.2674689	-1.9176293
C	4.0194298	-0.8277276	-0.5707439
H	3.8802683	0.2570180	-0.5499143
H	5.0241464	-1.0529254	-0.1969976
H	3.2602540	-1.2844069	0.0734097
