40
0.00358999 (energy)
C	-2.5794294	-0.0244035	0.5232610
C	-1.6025759	0.8662843	0.7361231
H	-3.5982488	0.1835381	0.8318960
H	-2.3841629	-0.9773265	0.0380062
H	-1.7962865	1.8158111	1.2196278
C	-0.2136165	0.5830956	0.3157402
O	0.1602633	-0.4374608	-0.2368805
O	0.5491930	1.6507050	0.6585954
C	1.9393738	1.5506093	0.3179402
C	2.7007872	0.8466893	1.4255003
H	2.3154605	2.5727461	0.2051089
H	2.0788512	1.0483453	-0.6463557
H	2.5525857	1.3608046	2.3808259
H	3.7710509	0.8176236	1.2024875
H	2.3433326	-0.1794633	1.5572742
C	1.3590148	0.8193618	-7.9575831
H	0.7467138	2.7861634	-8.2946125
C	1.0721780	2.0630503	-7.5494938
H	1.6500300	0.0309591	-7.2714917
H	1.2842396	0.5570013	-9.0084638
C	1.0996617	2.5418069	-6.1778609
C	1.9470616	2.0802400	-5.2389260
H	2.6845062	1.3314410	-5.5121502
O	0.1291149	3.4901172	-5.9091358
C	0.6071131	4.8151521	-6.1421695
H	-0.1865840	5.5124445	-5.8581927
H	0.8320587	4.9709986	-7.2023918
H	1.4898803	5.0389762	-5.5344306
S	1.9335132	2.6101657	-3.5842965
C	3.1090214	1.4537240	-2.9079286
C	4.4514903	1.8182012	-2.7657664
C	5.3726990	0.9134780	-2.2338235
H	4.7882672	2.8072596	-3.0664540
C	4.9546864	-0.3564477	-1.8378010
H	6.4152292	1.2013580	-2.1253617
C	2.6938605	0.1813421	-2.5016523
C	3.6158191	-0.7225087	-1.9699647
H	5.6717116	-1.0594554	-1.4212147
H	3.2878301	-1.7100104	-1.6556930
H	1.6509867	-0.1126165	-2.5950033
