11
-0.00290569 (energy)
C	0.9953123	0.0498786	-0.9606437
H	1.0777344	1.0102676	-1.4555575
C	1.7702044	-0.9997715	-1.2357500
H	2.5413333	-0.9240115	-1.9961409
H	1.6647145	-1.9491948	-0.7238417
O	0.0022278	0.0520532	-0.0247102
H	-0.0353576	-0.8261215	0.3921682
C	4.1843097	-1.5291830	1.1657698
H	5.2574036	-1.4003314	1.3793064
H	3.6634129	-0.6328325	0.7929720
O	3.6089170	-2.5974181	1.3317093
