11
-0.00270739 (energy)
C	-0.8071819	0.6239481	-0.9354768
H	-0.8740257	1.6979634	-0.8085785
C	-1.4356066	-0.0539901	-1.8964080
H	-2.0609796	0.4691016	-2.6132465
H	-1.3500595	-1.1295049	-1.9990347
O	-0.0018054	0.0569272	0.0090066
H	0.0286530	-0.9034763	-0.1429420
C	3.1356624	-0.0293717	-0.5569860
H	2.8984962	0.9266691	-0.0635596
H	2.8206167	-0.9348204	-0.0141558
O	3.7110540	-0.0821041	-1.6367465
