11
-0.00204014 (energy)
C	-0.2071749	1.0599852	-0.8657255
H	0.0142623	2.0281777	-0.4325408
C	-0.6400540	0.8830767	-2.1144150
H	-0.7913044	1.7384840	-2.7655490
H	-0.8536684	-0.0985188	-2.5211358
O	0.0124971	0.0501934	0.0254859
H	-0.1983384	-0.7966059	-0.4044795
C	3.9598059	-0.1113036	-0.0047090
H	2.9561360	-0.4113652	0.3363790
H	4.7319108	-0.0592828	0.7794490
O	4.2011087	0.1471510	-1.1771906
