31
-0.0111235 (energy)
C	2.4460708	1.9618319	0.4401206
O	1.8602686	3.0469898	0.4506379
O	3.3166202	1.6035707	-0.5676226
H	3.3424067	2.3029741	-1.2564201
N	2.2258446	-0.4603352	1.0296825
C	0.0649338	-0.0470877	0.0172953
H	0.0069040	0.9849769	0.3383477
H	-0.7800592	-0.4243119	-0.5442800
C	1.1313556	-2.2937737	-0.2039217
H	1.1514285	-3.0079929	0.6295554
H	0.2368552	-2.4960833	-0.7963630
H	2.0075840	-2.4974980	-0.8321482
C	4.0068737	-0.6172450	2.5504084
C	3.4341992	-1.2630488	1.2779750
C	2.3617936	0.9038156	1.5347091
C	3.6842685	0.8832506	2.3698875
H	3.4912456	-1.0163933	3.4312902
H	5.0791608	-0.7992462	2.6700799
H	3.1830821	-2.3157926	1.4260972
H	4.1500274	-1.1942245	0.4433851
H	1.4947216	1.1772500	2.1481230
H	4.4868881	1.3735192	1.8093472
H	3.5638298	1.4127108	3.3182993
C	1.1138290	-0.8616503	0.2844675
C	1.9550418	4.9136996	-1.9826907
H	1.7144011	4.8952958	-0.9027202
O	2.1655869	3.8571360	-2.5887899
C	1.9994002	6.2780998	-2.6115964
H	2.7474248	6.9029579	-2.1055743
H	2.2425320	6.2018461	-3.6735046
H	1.0311903	6.7816431	-2.4898301
