11
-0.00212336 (energy)
C	-1.2385927	-0.4767498	-0.3931521
H	-1.3411612	-1.5519107	-0.3060384
C	-2.2028886	0.3309674	-0.8354560
H	-3.1625017	-0.0785984	-1.1354101
H	-2.0716156	1.4040469	-0.9119445
O	-0.0027719	-0.0573219	0.0056214
H	0.0439922	0.9097406	-0.0892161
C	3.8727440	-0.1802005	0.0311953
H	4.2595180	0.8353454	0.2123133
H	2.7825891	-0.2989695	0.1370820
O	4.6056403	-1.1146346	-0.2678614
