11
0.0508687 (energy)
C	0.0126535	-1.2658197	-0.5599206
H	0.0261550	-1.2646736	-1.6433857
C	0.0083286	-2.3719352	0.1846572
H	0.0186153	-3.3485297	-0.2894010
H	-0.0053113	-2.3424036	1.2679506
O	0.0007058	0.0029235	-0.0575851
H	-0.0112017	-0.0463978	0.9139171
C	2.9104978	0.0314764	0.0087750
H	3.8922843	0.5223422	0.1029947
H	2.9382177	-1.0442834	-0.2272936
O	1.8586028	0.6409104	0.1565785
