11
-0.00264076 (energy)
C	-0.4526013	-0.9341351	0.9157043
H	0.0311591	-0.8683384	1.8830341
C	-1.3982835	-1.8243457	0.6138489
H	-1.7287098	-2.5425208	1.3579032
H	-1.8649451	-1.8666818	-0.3634010
O	0.0272988	0.0056861	0.0504731
H	-0.4332516	-0.0902418	-0.8010445
C	3.9805552	0.2725040	-0.2957447
H	2.9470214	0.6423301	-0.2021084
H	4.3057290	-0.4313227	0.4869723
O	4.7186642	0.6205147	-1.2088835
