11
-0.00252878 (energy)
C	-1.3566828	0.2342549	0.1432035
H	-1.5887021	1.1373009	0.6952497
C	-2.2766981	-0.5891992	-0.3601866
H	-3.3324477	-0.3734100	-0.2282713
H	-2.0147558	-1.4864735	-0.9087008
O	-0.0095360	0.0485219	0.0296610
H	0.1513435	-0.7700782	-0.4707414
C	3.5332579	-0.1048799	-0.0583330
H	2.8694576	0.5417311	-0.6541473
H	3.5614240	0.1103382	1.0217799
O	4.1955810	-1.0028949	-0.5629476
