11
-0.00378388 (energy)
C	-1.2560312	-0.3358737	0.4749159
H	-1.3600442	-1.3828142	0.7341010
C	-2.2339038	0.5626781	0.5944003
H	-3.2070276	0.2629001	0.9708799
H	-2.1007842	1.6044820	0.3269937
O	-0.0028103	-0.0561074	0.0130057
H	0.0446012	0.8904654	-0.2064097
C	2.9870262	0.5782795	-0.3413159
H	2.6624204	0.5302326	0.7103751
H	3.2095900	-0.3915188	-0.8142983
O	3.0933545	1.6388468	-0.9443335
