11
-0.0026313 (energy)
C	-0.6568773	-0.6475319	1.0320782
H	-1.4876930	-0.0857941	1.4422929
C	-0.2845070	-1.8521098	1.4659432
H	-0.8235655	-2.3299076	2.2781617
H	0.5516905	-2.3910392	1.0359298
O	-0.0436434	0.0319752	0.0199481
H	0.6926524	-0.5074697	-0.3165911
C	4.0664624	0.2955394	-0.5889505
H	5.0076226	0.8680085	-0.6040478
H	3.8477984	-0.2338778	0.3521443
O	3.3136236	0.2506722	-1.5538129
