11
0.0321255 (energy)
C	0.1337467	-1.1865484	-0.7001325
H	0.1448218	-1.0605139	-1.7762704
C	0.2378741	-2.3656326	-0.0862723
H	0.3414957	-3.2762181	-0.6682262
H	0.2236964	-2.4613266	0.9931833
O	0.0003003	0.0095280	-0.0568702
H	-0.0047659	-0.1512159	0.9025707
C	2.4901028	-0.1746058	-0.0150525
H	2.6795808	-0.4746386	1.0279287
H	2.5220521	0.9091316	-0.2106244
O	2.2593807	-0.9911990	-0.8980484
