11
-0.00203519 (energy)
C	0.2946427	1.0249349	-0.8824200
H	0.4186472	1.9901634	-0.4059361
C	0.4106562	0.8208081	-2.1949670
H	0.6427997	1.6490574	-2.8573010
H	0.2810832	-0.1570116	-2.6440350
O	0.0060706	0.0501115	0.0278760
H	-0.0963448	-0.7953064	-0.4424117
C	3.3190536	-0.1744234	-0.0130349
H	3.2052515	0.9104837	-0.1671680
H	3.4402229	-0.4951073	1.0339779
O	3.3113768	-0.9707422	-0.9433877
