11
-0.00450364 (energy)
C	-0.8071819	1.0944533	0.2580699
H	-0.8740257	1.3505235	1.3088030
C	-1.4356066	1.7582173	-0.7127063
H	-2.0609796	2.6125780	-0.4728104
H	-1.3500595	1.4788793	-1.7563703
O	-0.0018054	0.0114358	0.0564894
H	0.0286530	-0.1814939	-0.8965276
C	3.5576303	-0.5941315	-0.7504545
H	4.4905299	-0.0590926	-0.9895424
H	3.4707555	-0.9571080	0.2861055
O	2.6760783	-0.7734231	-1.5813934
