11
-0.00231359 (energy)
C	-1.1222752	-0.0037097	-0.8102193
H	-1.6911041	-0.9248464	-0.7652620
C	-1.4543179	1.0415564	-1.5685548
H	-2.3422839	1.0029413	-2.1919319
H	-0.8655124	1.9511045	-1.5933177
O	-0.0283610	-0.0500248	0.0042741
H	0.4501092	0.7939289	-0.0678336
C	4.2724438	-0.0411015	0.0853907
H	4.8079882	-0.9985388	-0.0157880
H	4.6297360	0.6199436	0.8910691
O	3.3421249	0.2677492	-0.6486780
