31
-0.00195625 (energy)
C	-2.5709433	1.0241993	-1.5385119
O	-2.3671135	0.5423698	-2.6552644
O	-2.5503606	2.3835068	-1.3069661
H	-2.3078260	2.8626984	-2.1290516
N	-2.2258445	0.6615638	0.9135033
C	-0.0498369	0.0322826	0.0566294
H	-0.4262020	-0.3490041	-0.8838859
H	1.0196009	-0.0353793	0.2096089
C	-0.2392174	1.0904027	2.3101395
H	-0.6010149	0.5304888	3.1823751
H	0.8483346	0.9985258	2.2812279
H	-0.4861962	2.1470645	2.4726681
C	-4.4742490	0.6355014	1.5867720
C	-3.1249985	1.3118502	1.8803378
C	-2.9349386	0.2302252	-0.2888169
C	-4.4479588	0.4276630	0.0556740
H	-4.5235763	-0.3298276	2.1033484
H	-5.3279406	1.2396014	1.9085161
H	-2.7906589	1.1389339	2.9058067
H	-3.1843742	2.3996742	1.7166290
H	-2.7013526	-0.8158717	-0.5211436
H	-4.8320057	1.3199028	-0.4494826
H	-5.0449597	-0.4274608	-0.2709324
C	-0.8356367	0.5682462	1.0211687
C	3.9873541	1.2367587	0.2598960
H	3.8730887	1.6270136	-0.7692917
O	3.2385459	0.3430531	0.6704917
C	5.0853488	1.8655549	1.0711302
H	4.9203160	2.9480413	1.1550014
H	5.1259170	1.4220731	2.0682535
H	6.0517164	1.7304411	0.5674526
