11
0.00113769 (energy)
C	1.2621474	-0.5426347	-0.1688259
H	1.2583964	-1.5242110	-0.6277094
C	2.3680228	0.1010530	0.2061570
H	3.3416828	-0.3557138	0.0580890
H	2.3411518	1.0833293	0.6633156
O	-0.0030566	-0.0520894	-0.0245446
H	0.0485105	0.8266970	0.3895403
C	-0.2391662	2.2283938	-3.1481366
H	0.4187249	1.7372521	-3.8827730
H	-0.2411958	3.3297879	-3.1742650
O	-0.9225691	1.5925363	-2.3554295
