11
-0.00224803 (energy)
C	0.0064981	0.0420299	1.3835324
H	-0.0037291	-0.9355203	1.8508343
C	0.0238107	1.1914320	2.0591667
H	0.0284272	1.1859176	3.1447642
H	0.0337477	2.1555717	1.5642741
O	-0.0005692	-0.0531928	0.0222552
H	0.0090329	0.8442076	-0.3532062
C	3.7894706	0.0135852	-0.5365237
H	3.6795316	-0.2999602	0.5138734
H	4.7641776	-0.2094652	-0.9990717
O	2.8884074	0.5727065	-1.1490655
