11
-0.00383191 (energy)
C	-0.4595395	-0.1587420	1.2959920
H	-0.4975948	-1.1910140	1.6231712
C	-0.8173100	0.8777142	2.0547181
H	-1.1733433	0.7151710	3.0673354
H	-0.7686082	1.9007452	1.7002913
O	-0.0010273	-0.0557112	0.0148424
H	0.0163047	0.8841769	-0.2355593
C	3.5539459	0.9074873	-0.3061150
H	4.5637329	0.4888243	-0.1690649
H	2.7482324	0.1687052	-0.4431649
O	3.3412886	2.1135204	-0.3061151
