11
-0.00682126 (energy)
C	-1.2560312	-0.5763373	0.0786867
H	-1.3600442	-1.4803516	-0.5095476
C	-2.2339038	-0.0503515	0.8169352
H	-3.2070276	-0.5301108	0.8548139
H	-2.1007842	0.8561654	1.3958038
O	-0.0028103	-0.0478013	-0.0321283
H	0.0446012	0.7586415	0.5098986
C	3.2864480	0.6670057	0.4499755
H	4.3785286	0.5421054	0.5240778
H	2.7820033	0.0121911	-0.2783853
O	2.6741279	1.4794474	1.1316950
