11
-0.0026239 (energy)
C	-1.2560312	-0.0049380	0.5816630
H	-1.3600442	-0.7169579	1.3917797
C	-2.2339038	0.8012242	0.1672066
H	-3.2070276	0.7697781	0.6474304
H	-2.1007842	1.5043353	-0.6467325
O	-0.0028103	-0.0386630	0.0426891
H	0.0446012	0.6136098	-0.6775076
C	3.6646117	0.5316488	-0.5160045
H	4.1391218	-0.4546483	-0.3903481
H	2.7399264	0.6906935	0.0614188
O	4.1336747	1.3936411	-1.2485945
