11
-0.00265732 (energy)
C	-1.3792308	-0.1048459	0.0519659
H	-1.7312068	-1.0230413	0.5070596
C	-2.1823828	0.8488003	-0.4206992
H	-3.2601852	0.7322681	-0.3629412
H	-1.8014583	1.7578940	-0.8712853
O	-0.0160008	-0.0496363	0.0246029
H	0.2539436	0.7877640	-0.3904655
C	2.9880806	0.0851534	0.0756016
H	3.0097757	0.1394751	-1.0245392
H	3.1659284	-0.9136056	0.5052603
O	2.7801645	1.0692302	0.7742450
