11
0.00102849 (energy)
C	-0.2123906	1.1574445	0.7288231
H	0.3390980	1.1948323	1.6607794
C	-1.0255103	2.1251077	0.3041222
H	-1.1679743	3.0195813	0.9026160
H	-1.5648651	2.0601546	-0.6336732
O	0.0304362	-0.0005850	0.0489733
H	-0.4830442	0.0092844	-0.7772418
C	0.8517121	-3.1763003	-2.3486838
H	0.6142611	-3.6200723	-3.3286913
H	-0.0071584	-2.7706539	-1.7905186
O	1.9940525	-3.1365688	-1.9091173
