11
-0.00438105 (energy)
C	-0.4595395	-0.4284708	1.2333722
H	-0.4975948	-1.5065246	1.3355085
C	-0.8173100	0.4246775	2.1936039
H	-1.1733433	0.0522490	3.1491723
H	-0.7686082	1.4994441	2.0628840
O	-0.0010273	-0.0575883	0.0027602
H	0.0163047	0.9139682	-0.0438070
C	2.7747051	0.5553802	-0.3260589
H	2.8220796	-0.4144129	-0.8466243
H	2.8293769	0.5073429	0.7732405
O	2.6683772	1.6159486	-0.9290746
