11
0.00326785 (energy)
C	-0.4069598	0.7571083	1.0849615
H	0.0760503	1.7249490	1.1487241
C	-1.3119521	0.3162481	1.9593400
H	-1.6071931	0.9379580	2.7989133
H	-1.7789786	-0.6576647	1.8701053
O	0.0271549	0.0508594	0.0010104
H	-0.4309671	-0.8071759	-0.0160359
C	3.2318429	1.7559659	-1.7369949
H	3.9575943	1.0500882	-1.3025379
H	3.6656665	2.5856208	-2.3177062
O	2.0235850	1.6270046	-1.5846118
