11
-0.00243218 (energy)
C	-0.0181421	0.9132997	1.0399641
H	-0.0257781	0.4569583	2.0227022
C	-0.0252853	2.2298709	0.8290240
H	-0.0395794	2.9168119	1.6695486
H	-0.0173099	2.6583034	-0.1664481
O	-0.0003727	-0.0268516	0.0510289
H	0.0059151	0.4261536	-0.8098647
C	3.8782655	-0.1647966	-0.3915693
H	4.4841461	-0.0836763	0.5249782
H	2.9077018	-0.6730655	-0.2757044
O	4.2582433	0.2802811	-1.4673303
