11
-0.00259163 (energy)
C	-1.3162004	-0.4284708	0.0000000
H	-1.4251959	-1.5065246	-0.0000005
C	-2.3409172	0.4246775	0.0000002
H	-3.3606578	0.0522490	0.0000001
H	-2.2014198	1.4994441	-0.0000024
O	-0.0029452	-0.0575883	0.0000010
H	0.0467428	0.9139682	-0.0000162
C	3.0709503	-0.0000010	0.5348755
H	2.6584364	-0.9217471	0.0944805
H	2.8958153	0.9217600	-0.0425673
O	3.6832694	0.0000001	1.5954434
