11
0.00142963 (energy)
C	-0.8999081	0.9840583	-0.3711678
H	-1.8718149	0.6016311	-0.6596582
C	-0.5790557	2.2782533	-0.3667439
H	-1.3111001	3.0226567	-0.6643146
H	0.4023306	2.6319943	-0.0729224
O	-0.0507574	-0.0229966	-0.0148300
H	0.8055568	0.3649729	0.2353630
C	1.6338437	1.2465894	3.7153500
H	2.3362160	1.8823274	4.2777037
H	2.0862586	0.6147504	2.9344171
O	0.4305755	1.2425135	3.9430951
