11
-0.00319934 (energy)
C	-1.0810249	-0.7802431	0.3722589
H	-1.1705456	-1.7011430	-0.1916645
C	-1.9226477	-0.4130065	1.3390654
H	-2.7601835	-1.0507440	1.6043924
H	-1.8080768	0.5151212	1.8868201
O	-0.0024184	-0.0482575	-0.0314715
H	0.0383817	0.7658817	0.4994746
C	3.5516423	-0.9785585	-0.8250330
H	2.4785483	-1.1726733	-0.6684441
H	4.0725391	-1.6933481	-1.4819182
O	4.1270348	-0.0315005	-0.3037429
