11
-0.00277944 (energy)
C	-0.8071819	-0.4284708	1.0396350
H	-0.8740257	-1.5065246	1.1257276
C	-1.4356066	0.4246775	1.8490341
H	-2.0609796	0.0522490	2.6545025
H	-1.3500595	1.4994441	1.7388469
O	-0.0018054	-0.0575883	0.0023270
H	0.0286530	0.9139682	-0.0369310
C	3.0507750	0.0000011	-0.9498762
H	2.5454382	0.9217471	-1.2796494
H	2.4516930	-0.9217600	-1.0220787
O	4.2015585	-0.0000000	-0.5310252
