31
-0.00205204 (energy)
C	-0.2837752	3.1506776	0.1358503
O	0.3391066	3.3843752	1.1742367
O	-1.6452652	3.3444886	0.0332062
H	-2.0115383	3.6335420	0.8972457
N	-0.4113195	1.6278118	-1.8459642
C	-0.0323393	0.0236825	-0.0715967
H	0.5636429	0.6936524	0.5346582
H	-0.1785846	-0.9756354	0.3178311
C	-1.4110404	-0.6170132	-2.0521226
H	-0.9543455	-0.8466991	-3.0236524
H	-1.5058412	-1.5526549	-1.4974749
H	-2.4207465	-0.2339239	-2.2462471
C	-0.1107471	3.2253440	-3.5391387
C	-1.0511992	2.0966139	-3.0856809
C	0.3357545	2.6918744	-1.1795613
C	0.3480921	3.8680317	-2.2107682
H	0.7456995	2.7997610	-4.0744169
H	-0.6034107	3.9453216	-4.1995629
H	-1.1169199	1.2926783	-3.8223204
H	-2.0679149	2.4791445	-2.9022510
H	1.3494761	2.3552354	-0.9307651
H	-0.3641674	4.6407304	-1.9035388
H	1.3369519	4.3285998	-2.2767365
C	-0.5806347	0.3700216	-1.2609224
C	3.3572611	3.0020927	0.4419414
H	3.4498899	3.4004629	1.4701943
O	3.1113545	3.7655457	-0.4986337
C	3.5493589	1.5177581	0.3043650
H	2.8159551	0.9832023	0.9227628
H	3.4412880	1.2133613	-0.7388224
H	4.5433567	1.2300142	0.6717682
