31
-0.00275084 (energy)
C	-1.4928429	-2.7242640	-0.6128282
O	-1.7663596	-3.0892995	0.5329381
O	-0.5907589	-3.4008562	-1.4066929
H	-0.1933880	-4.1466552	-0.9065406
N	-1.1843470	-0.7174321	-2.0758497
C	-0.0114207	-0.0026608	-0.0812112
H	-0.6460754	-0.5516635	0.6024619
H	0.7820600	0.5833447	0.3645060
C	0.7648531	0.7726073	-2.3240105
H	0.2306202	1.5525572	-2.8821050
H	1.5365791	1.2593936	-1.7244067
H	1.2626881	0.1263180	-3.0577807
C	-2.8480734	-1.1799632	-3.6656209
C	-1.3535762	-0.8440654	-3.5323677
C	-2.1347932	-1.5481027	-1.3402684
C	-3.1303997	-2.0648216	-2.4305231
H	-3.4392753	-0.2582848	-3.6194305
H	-3.0837176	-1.6907738	-4.6041248
H	-1.0924554	0.0868661	-4.0407494
H	-0.7287169	-1.6503189	-3.9485326
H	-2.6439905	-0.9605635	-0.5667230
H	-2.9161741	-3.1127559	-2.6644204
H	-4.1654967	-2.0015357	-2.0857223
C	-0.1664407	-0.0133489	-1.4269188
C	3.0335889	-2.4770328	-1.5530062
H	2.9971690	-2.1093741	-2.5961186
O	2.8829980	-3.6805476	-1.3144969
C	3.2717920	-1.4259047	-0.5054056
H	2.4827257	-0.6633524	-0.5493962
H	3.2926326	-1.8755987	0.4895405
H	4.2220018	-0.9100700	-0.6973149
