31
-0.00218878 (energy)
C	1.4928430	0.8314069	-2.6656960
O	1.7663597	2.0061874	-2.4089430
O	0.5907591	0.4821958	-3.6485744
H	0.1933882	1.2882399	-4.0443792
N	1.1843471	-1.4390228	-1.6592390
C	0.0114207	-0.0690006	-0.0429099
H	0.6460754	0.7975790	-0.1765238
H	-0.7820600	0.0239992	0.6874443
C	-0.7648530	-2.3989559	-0.4929074
H	-0.2306201	-3.2722547	-0.0964981
H	-1.5365791	-2.1230768	0.2284637
H	-1.2626880	-2.7112750	-1.4194955
C	2.8480736	-2.5845395	-2.8546881
C	1.3535764	-2.6370878	-2.4971655
C	2.1347933	-0.3866554	-2.0108303
C	3.1303999	-1.0724843	-3.0034492
H	3.4392755	-3.0053766	-2.0333959
H	3.0837179	-3.1419026	-3.7663149
H	1.0924556	-3.5428249	-1.9451459
H	0.7287171	-2.5943706	-3.4034839
H	2.6439906	-0.0105149	-1.1152337
H	2.9161743	-0.7510783	-4.0279356
H	4.1654969	-0.8055210	-2.7762415
C	0.1664407	-1.2290736	-0.7250197
C	1.1714469	5.0454436	-0.3714842
H	1.9822673	5.7979462	-0.4013652
O	0.0615358	5.3111685	-0.8463523
C	1.5301691	3.7342408	0.2697208
H	1.8550252	3.8970986	1.3060571
H	0.6750758	3.0551314	0.2554902
H	2.3756812	3.2742767	-0.2588203
