11
-0.00186808 (energy)
C	-0.8983767	-0.4284708	-0.9619267
H	-0.9727715	-1.5065246	-1.0415848
C	-1.5978004	0.4246775	-1.7108265
H	-2.2938274	0.0522490	-2.4560897
H	-1.5025841	1.4994441	-1.6088786
O	-0.0020110	-0.0575883	-0.0021518
H	0.0319163	0.9139682	0.0341503
C	3.5804687	0.5494613	0.5393564
H	2.7130023	-0.1157083	0.6764064
H	3.3435214	1.6166207	0.4023064
O	4.7312526	0.1306113	0.5393564
