11
0.0280442 (energy)
C	-1.3566828	0.0278995	-0.2731377
H	-1.5887021	0.1354518	-1.3260763
C	-2.2766981	-0.0701732	0.6869977
H	-3.3324477	-0.0444728	0.4353907
H	-2.0147558	-0.1770348	1.7332049
O	-0.0095360	0.0057778	-0.0565753
H	0.1513435	-0.0916983	0.8978916
C	2.5543821	-0.7158223	-0.5908019
H	2.6801753	-1.7704360	-0.2980609
H	2.9989386	-0.4355831	-1.5590950
O	1.9600891	0.0910727	0.1130981
