40
-0.00163202 (energy)
C	1.6200947	1.6641020	-3.2424882
H	1.9876782	1.3260862	-1.2158069
C	1.3297055	1.1133259	-2.0559415
H	0.9918509	1.5340676	-4.1173544
H	2.5014795	2.2879201	-3.3555651
C	0.1726909	0.2871955	-1.7556650
C	-0.4140344	-0.5344606	-2.6463749
H	0.0089054	-0.6257620	-3.6423477
O	-0.3074178	0.4633227	-0.4703863
C	0.2975545	-0.4469097	0.4483030
H	-0.1653234	-0.2919560	1.4273576
H	1.3705678	-0.2517417	0.5458312
H	0.1307672	-1.4882906	0.1543138
S	-1.8355897	-1.4721179	-2.3017262
C	-2.1624453	-2.1007021	-3.9371765
C	-1.7042300	-3.3688945	-4.3073161
C	-1.9618530	-3.8630343	-5.5877727
H	-1.1458056	-3.9799129	-3.6024141
C	-2.6821718	-3.0937405	-6.5007937
H	-1.6035104	-4.8494080	-5.8709079
C	-2.8913017	-1.3367046	-4.8544828
C	-3.1482621	-1.8317359	-6.1345457
H	-2.8848161	-3.4799937	-7.4966013
H	-3.7152728	-1.2339114	-6.8434943
H	-3.2644031	-0.3534512	-4.5774991
C	5.5815584	-2.7718462	-0.7339307
C	4.8095158	-1.8392789	-0.1619639
H	5.1583199	-3.7094201	-1.0778965
H	6.6492558	-2.6203416	-0.8707967
H	3.7457473	-1.9895262	-0.0251272
C	5.3861285	-0.5611937	0.3072289
O	6.5613545	-0.2469326	0.2247971
O	4.3803781	0.1770137	0.8389562
C	4.7609148	1.4646348	1.3448133
C	5.2264335	1.3454505	2.7839209
H	3.8721296	2.1023971	1.2973151
H	5.5257808	1.9314007	0.7133870
H	4.4515995	0.8791834	3.4012965
H	5.4628517	2.3297509	3.1978086
H	6.1163218	0.7123942	2.8578529
