40
-0.00214926 (energy)
C	0.2981632	3.7726815	-1.2592240
H	-0.5473812	1.9348386	-1.7732256
C	-0.0126360	2.4936955	-1.0078840
H	0.8652478	4.3842252	-0.5653801
H	0.0020298	4.2341493	-2.1963083
C	0.3451136	1.7440149	0.1843134
C	0.4688103	2.2935560	1.4071925
H	0.2584277	3.3509207	1.5371726
O	0.6001254	0.4075023	-0.0650246
C	-0.5787172	-0.3876443	0.0637244
H	-0.2960613	-1.4332277	-0.0901443
H	-1.3180767	-0.1205739	-0.6984966
H	-1.0195988	-0.2979397	1.0618719
S	0.9588955	1.4053790	2.8177816
C	1.1256918	2.7619818	3.9616603
C	0.0738314	3.0882114	4.8233102
C	0.2045692	4.1495550	5.7214028
H	-0.8520877	2.5187463	4.8020650
C	1.3882988	4.8852041	5.7648072
H	-0.6159070	4.3994225	6.3891551
C	2.3136815	3.4983239	4.0150985
C	2.4432987	4.5593870	4.9134248
H	1.4905913	5.7096409	6.4660413
H	3.3687498	5.1282795	4.9509068
H	3.1449112	3.2492552	3.3595577
C	4.7710166	-1.5589073	5.0165134
C	4.7795105	-0.8921523	3.8553746
H	5.2185768	-1.1305038	5.9068214
H	4.3187447	-2.5435685	5.1034394
H	5.2300189	0.0888155	3.7679318
C	4.1697076	-1.4758947	2.6414919
O	3.6277323	-2.5664473	2.5809206
O	4.3286432	-0.5873598	1.6293341
C	3.7865056	-0.9905239	0.3635485
C	4.8045979	-1.8123654	-0.4045712
H	3.5575364	-0.0754316	-0.1924328
H	2.8435541	-1.5353302	0.4885222
H	5.7393307	-1.2543507	-0.5221274
H	4.4231090	-2.0748798	-1.3953265
H	5.0496508	-2.7348753	0.1312012
