40
0.000455997 (energy)
C	-3.2816139	-1.1661182	-0.6955295
C	-1.9526273	-1.0103609	-0.6464158
H	-3.7260126	-1.9721522	-1.2693822
H	-3.9527176	-0.4947388	-0.1658756
H	-1.2833678	-1.6787335	-1.1739303
C	-1.3464886	0.0883887	0.1355503
O	-1.9652860	0.9189964	0.7788946
O	0.0000000	0.0000000	0.0000000
C	0.7575941	0.9947872	0.7036456
C	0.9085641	2.2395975	-0.1505198
H	1.7441469	0.5636948	0.9031668
H	0.3058872	1.2274223	1.6749497
H	1.3620117	1.9909630	-1.1156579
H	1.5344571	2.9817957	0.3529120
H	-0.0658078	2.6906907	-0.3632205
C	2.2026480	-2.8221326	2.6479660
H	1.4173169	-2.2196573	0.8102805
C	2.2992035	-2.2346137	1.4475195
H	3.0234317	-2.8425119	3.3571126
H	1.2705871	-3.2848164	2.9577412
C	3.4690488	-1.5537242	0.9191335
C	4.7361161	-1.9023826	1.2118918
H	4.9154893	-2.7622551	1.8503432
O	3.1568937	-0.4693778	0.1189969
C	3.0352524	-0.8438633	-1.2533982
H	2.8446398	0.0642616	-1.8328727
H	2.1902865	-1.5243093	-1.4016743
H	3.9558310	-1.3009777	-1.6306292
S	6.1306429	-1.0457387	0.6285742
C	7.3911384	-1.8855759	1.5679756
C	8.1004049	-2.9482818	0.9997557
C	9.0897217	-3.6053601	1.7343392
H	7.8887989	-3.2703497	-0.0168875
C	9.3768455	-3.1996964	3.0371349
H	9.6383121	-4.4309914	1.2883688
C	7.6888629	-1.4778306	2.8723831
C	8.6782117	-2.1355838	3.6060010
H	10.1490007	-3.7097916	3.6076331
H	8.9056818	-1.8145764	4.6192704
H	7.1540438	-0.6454468	3.3238445
