40
0.00327282 (energy)
C	-2.4619979	0.9154537	2.3902078
C	-1.4421573	0.9237379	1.5226053
H	-2.7468073	1.8169115	2.9219459
H	-3.0328689	0.0117712	2.5880157
H	-0.8728423	1.8236114	1.3250959
C	-1.0534916	-0.3049341	0.7977397
O	-1.5948248	-1.3913488	0.9133797
O	0.0000000	0.0000000	0.0000000
C	0.5105216	-1.0841039	-0.7891477
C	1.5371209	-1.8711461	0.0036963
H	0.9865914	-0.6417662	-1.6704143
H	-0.2980343	-1.7300117	-1.1505754
H	2.3379650	-1.2127907	0.3560347
H	1.9756081	-2.6639058	-0.6089249
H	1.0845331	-2.3250957	0.8909513
C	4.7828304	0.2725800	4.8125656
H	5.1074985	-1.7450172	4.3874752
C	4.8359489	-0.7742407	3.9777494
H	4.4808139	1.2634134	4.4900359
H	5.0254436	0.1477300	5.8634347
C	4.5093523	-0.7577439	2.5619801
C	4.7022533	0.3062595	1.7598483
H	5.1604705	1.2020676	2.1681874
O	3.9274879	-1.9324130	2.1203325
C	4.9048727	-2.8620942	1.6524476
H	4.3760179	-3.7395180	1.2687098
H	5.5578620	-3.1896281	2.4680986
H	5.5038792	-2.4427749	0.8375340
S	4.2512753	0.3428303	0.0823249
C	4.5702700	2.0629745	-0.2582584
C	5.7888685	2.4536746	-0.8218608
C	6.0386924	3.8009735	-1.0910938
H	6.5498613	1.7132240	-1.0557222
C	5.0700268	4.7615563	-0.8025681
H	6.9875286	4.0998287	-1.5291618
C	3.5992136	3.0299432	0.0217343
C	3.8500897	4.3768111	-0.2478087
H	5.2639361	5.8099909	-1.0148729
H	3.0919362	5.1241780	-0.0283792
H	2.6420980	2.7403259	0.4492424
