40
0.0243875 (energy)
C	3.2160216	0.6880321	1.3402983
C	2.1833991	0.1494650	0.6796062
H	4.2047775	0.2459481	1.2818898
H	3.0973717	1.5788686	1.9518506
H	2.3007696	-0.7381170	0.0702425
C	0.8353895	0.7516844	0.7591528
O	0.5457486	1.7464156	1.4020596
O	0.0000000	0.0000000	0.0000000
C	-1.3631362	0.4456819	-0.0435314
C	-2.1430385	-0.1395943	1.1188572
H	-1.7865904	0.0880728	-0.9878503
H	-1.4250080	1.5400180	-0.0573195
H	-2.0726268	-1.2322820	1.1177663
H	-3.1970885	0.1463543	1.0617986
H	-1.7389433	0.2046095	2.0761232
C	0.0567222	6.6090775	5.3652922
H	-1.8331524	6.8963065	4.5270302
C	-0.7746554	6.7473338	4.3235294
H	1.1294468	6.4982676	5.2470841
H	-0.3292000	6.6270092	6.3799434
C	-0.3936127	6.7731940	2.9215744
C	0.6495391	6.0892301	2.4148623
H	1.2309986	5.4470685	3.0696212
O	-1.1793616	7.6156268	2.1558250
C	-2.3041224	6.9311573	1.6036303
H	-2.8473361	7.6371960	0.9686164
H	-2.9838484	6.5921224	2.3922924
H	-1.9964044	6.0830961	0.9832887
S	1.1399074	6.1733655	0.7501511
C	2.6568961	5.2436829	0.8554426
C	2.6689869	3.8806143	0.5437148
C	3.8576062	3.1519962	0.6237931
H	1.7553009	3.3781011	0.2359378
C	5.0387596	3.7839099	1.0108866
H	3.8619869	2.0925925	0.3805800
C	3.8462510	5.8740601	1.2354877
C	5.0341471	5.1445534	1.3152902
H	5.9643823	3.2168433	1.0704442
H	5.9556449	5.6393950	1.6110549
H	3.8551789	6.9360363	1.4696641
