31
-0.00576507 (energy)
C	2.8935571	-1.8115289	-1.1353616
O	3.5384289	-2.8614005	-1.1878281
O	3.4970594	-0.5831452	-0.9662098
H	4.4656561	-0.6956121	-0.8502629
N	0.7437825	-0.7962670	-0.3538962
C	1.3165993	-2.1628804	1.5616939
H	1.8119052	-2.9320851	0.9832514
H	1.2749255	-2.3179305	2.6321614
C	0.0901697	-0.0132213	1.8912791
H	-0.9791837	0.0824684	1.6621005
H	0.1832799	-0.2926339	2.9426143
H	0.5436434	0.9775522	1.7621362
C	-0.0689835	-0.0512280	-2.4260018
C	0.2388732	0.4272024	-0.9975641
C	1.3836850	-1.6945337	-1.3120628
C	1.0489848	-1.0794204	-2.7108112
H	-1.0510203	-0.5372486	-2.4490697
H	-0.0749847	0.7666383	-3.1528470
H	-0.6510194	0.8015810	-0.4864855
H	0.9948863	1.2285110	-1.0035410
H	0.9911426	-2.7133911	-1.2086380
H	1.9304046	-0.5711020	-3.1151360
H	0.7492585	-1.8518702	-3.4234149
C	0.7600919	-1.0531016	1.0196932
C	5.9529200	1.0962266	-3.2795100
H	5.2602104	1.8811867	-3.6380821
O	5.8262966	0.6307094	-2.1414096
C	7.0102425	0.6708207	-4.2593962
H	7.6251877	1.5332472	-4.5494130
H	7.6456768	-0.1033055	-3.8240473
H	6.5431016	0.2915266	-5.1779432
