18
0.00102267 (energy)
C	2.9793550	0.2250238	-0.6962236
O	3.8229227	1.0549795	-0.3687395
H	2.5169612	0.2849230	-1.6972934
C	2.4164454	-0.8641684	0.1867246
Cl	3.6474529	-1.3753215	1.3748596
H	2.2053140	-1.7369210	-0.4395013
C	1.1544397	-0.3764577	0.9048507
H	1.3665624	0.5112742	1.5128456
H	0.8059176	-1.1601242	1.5880740
N	0.0467300	-0.0627911	-0.0104892
H	0.1690771	0.8798814	-0.3870700
H	-0.8183604	-0.0074396	0.5328110
O	-1.8592469	-1.0664864	-2.2640305
H	-2.5938210	-1.6987899	-2.3418302
C	-0.7820704	-1.5847228	-3.0225915
H	0.0631722	-0.8956727	-2.9563022
H	-1.0861740	-1.6854367	-4.0673301
H	-0.4881733	-2.5580175	-2.6220262
