40
0.00515067 (energy)
C	1.4490788	4.4349605	0.9454938
H	0.3844034	4.7760913	-0.8171479
C	0.7456225	4.0241818	-0.1184533
H	1.8781659	3.7454972	1.6648787
H	1.6306267	5.4932130	1.1064802
C	0.4548121	2.6451544	-0.4720817
C	0.2842907	1.6594791	0.4290819
H	0.3276797	1.8957926	1.4880669
O	0.4197951	2.4254753	-1.8373588
C	-0.8946719	2.6006106	-2.3665170
H	-0.8616155	2.3583649	-3.4328373
H	-1.2239339	3.6399536	-2.2649659
H	-1.6156676	1.9300866	-1.8876804
S	0.0000000	0.0000000	0.0000000
C	0.1079593	-0.7331230	1.6209645
C	-1.0529463	-0.9731687	2.3625527
C	-0.9693710	-1.5496128	3.6317414
H	-2.0282548	-0.7146517	1.9575706
C	0.2738418	-1.8924451	4.1619937
H	-1.8745959	-1.7341838	4.2044625
C	1.3516892	-1.0863319	2.1545883
C	1.4341012	-1.6625887	3.4237541
H	0.3381674	-2.3436849	5.1489759
H	2.4031782	-1.9352834	3.8336693
H	2.2625419	-0.9166969	1.5851297
C	3.8767510	0.0162709	-0.0829204
C	3.4542635	-1.2520032	-0.1594891
H	3.2351216	0.8353889	-0.3892622
H	4.8689157	0.2637614	0.2858903
H	2.4659933	-1.4993927	-0.5269430
C	4.3286901	-2.3688594	0.2578073
O	5.4628897	-2.2512556	0.6896310
O	3.6442670	-3.5242872	0.0686784
C	4.3454878	-4.7229402	0.4294943
C	5.1847799	-5.2101097	-0.7367809
H	3.5883756	-5.4742377	0.6770203
H	4.9557524	-4.5733119	1.3277026
H	4.5610958	-5.3559777	-1.6248496
H	5.6772259	-6.1554299	-0.4920150
H	5.9513142	-4.4755249	-1.0031221
