40
-0.00146626 (energy)
C	1.3942827	0.1576968	-4.5490406
H	1.5351358	-1.8960831	-4.2041374
C	1.3294350	-0.9239279	-3.7607158
H	1.2432269	1.1646056	-4.1744651
H	1.6271588	0.0529570	-5.6043002
C	1.0598116	-0.9278393	-2.3329104
C	0.2685261	-0.0298236	-1.7163355
H	-0.2350283	0.7282684	-2.3087082
O	1.7399774	-1.9198662	-1.6497387
C	0.9758516	-3.1231475	-1.5676988
H	1.5453164	-3.8416392	-0.9707951
H	0.8179738	-3.5568900	-2.5606248
H	0.0131824	-2.9575504	-1.0731614
S	0.0000000	0.0000000	0.0000000
C	-0.9138948	1.5257586	0.1162219
C	-2.3119408	1.5078546	0.1367921
C	-3.0286830	2.7027130	0.2301027
H	-2.8513495	0.5654842	0.0816150
C	-2.3509097	3.9187865	0.3080011
H	-4.1153780	2.6837169	0.2456329
C	-0.2392150	2.7479350	0.2026344
C	-0.9568711	3.9420579	0.2958322
H	-2.9093119	4.8485150	0.3833745
H	-0.4275734	4.8890824	0.3628534
H	0.8479107	2.7772718	0.1996854
C	5.5445700	1.2810317	1.8636750
C	5.3798143	2.2438606	2.7794773
H	6.4429516	0.6733741	1.8513953
H	4.7889294	1.0790704	1.1087693
H	6.1322339	2.4457719	3.5318059
C	4.1554192	3.0725319	2.7964011
O	3.2233247	2.9670103	2.0174428
O	4.2667719	3.9559630	3.8193225
C	3.1543639	4.8459956	3.9897869
C	3.3268605	6.0736501	3.1151140
H	3.1415426	5.1438394	5.0433810
H	2.2034578	4.3397426	3.7871170
H	4.2796727	6.5683394	3.3304202
H	2.5137411	6.7857990	3.2816215
H	3.3416118	5.8017851	2.0549258
