18
0.00131698 (energy)
C	2.0868777	2.1633343	0.6138772
O	2.0474338	3.3829214	0.4770182
H	2.6229524	1.5491973	-0.1311035
C	1.3807771	1.3673894	1.6865830
Cl	1.2305115	2.3515246	3.1688854
H	2.0087683	0.5084869	1.9441597
C	-0.0020030	0.9201874	1.2026875
H	-0.6190281	1.7831256	0.9245880
H	-0.5181473	0.4044381	2.0212183
N	0.0506676	-0.0048102	0.0603830
H	0.1570978	0.5263364	-0.8067787
H	-0.8610913	-0.4595014	-0.0322029
O	6.2961930	2.7443317	0.5552739
H	5.5079965	2.2869794	0.2161060
C	7.3192894	2.5812616	-0.4095965
H	8.2226968	3.0852923	-0.0582742
H	7.0022194	3.0246525	-1.3566826
H	7.5276058	1.5170939	-0.5448073
