18
0.00151083 (energy)
C	-0.0541986	-2.2004829	-2.1370205
O	0.7847589	-3.0406712	-2.4499308
H	-0.1730863	-1.2935006	-2.7557171
C	-0.9195580	-2.2287686	-0.8988133
Cl	-1.2405047	-3.9200256	-0.4245090
H	-1.8886456	-1.7851411	-1.1488059
C	-0.2417967	-1.4740383	0.2489006
H	0.7382923	-1.9083921	0.4801663
H	-0.8574852	-1.5672259	1.1514740
N	-0.0656949	-0.0388452	-0.0202899
H	0.7768763	0.1042691	-0.5815434
H	0.1359109	0.4354602	0.8634578
O	2.8402537	3.1455000	1.4535997
H	2.1571926	2.4928572	1.6836966
C	2.4617180	3.7263921	0.2192706
H	3.2109272	4.4673244	-0.0693887
H	1.4911144	4.2163740	0.3285740
H	2.4057138	2.9501403	-0.5478194
