31
-0.00221283 (energy)
C	2.6065134	0.0774878	2.4785962
O	3.6397314	-0.4020106	2.9512320
O	1.5803697	0.5451899	3.2723453
H	1.7873916	0.3885434	4.2193806
N	0.9825274	-0.0916504	0.5820104
C	1.3042937	-2.4339067	1.1069279
H	2.3311604	-2.3175630	1.4288103
H	0.9021921	-3.4384838	1.1355126
C	-0.9043393	-1.6445064	0.2510202
H	-1.0587929	-1.3981871	-0.8075954
H	-1.1675501	-2.6946957	0.3919780
H	-1.6070035	-1.0372787	0.8353882
C	1.2262845	2.0753652	-0.2862749
C	0.1683368	1.0775170	0.2128758
C	2.3315536	0.2890130	0.9939147
C	2.4375719	1.8079213	0.6353573
H	1.4816260	1.8523323	-1.3284847
H	0.8856113	3.1137647	-0.2322988
H	-0.5571442	0.8220992	-0.5628229
H	-0.3808508	1.4833476	1.0773882
H	3.0814141	-0.3099842	0.4630960
H	2.3561912	2.4122361	1.5447239
H	3.3952119	2.0388293	0.1621494
C	0.5280450	-1.4096310	0.6787090
C	1.4123038	2.5625226	-4.5433958
H	1.1937098	1.6010276	-5.0457173
O	1.9903476	2.5735484	-3.4508044
C	0.9618192	3.7931082	-5.2794670
H	-0.1231094	3.7575334	-5.4459342
H	1.2171532	4.6917597	-4.7139525
H	1.4332573	3.8341558	-6.2703629
