18
0.00294102 (energy)
C	2.7803887	-0.4149832	-1.2284734
O	3.8837743	-0.5343815	-0.7031516
H	2.4900086	0.5546354	-1.6701247
C	1.6956580	-1.4661484	-1.2633346
Cl	2.4310251	-3.0932737	-1.2678469
H	1.1528356	-1.3660164	-2.2087180
C	0.7563995	-1.3103592	-0.0634394
H	1.3087473	-1.3889149	0.8807336
H	0.0213312	-2.1239345	-0.0762723
N	0.0122627	-0.0416951	-0.0659363
H	0.5973387	0.7001967	0.3248272
H	-0.7677205	-0.1208702	0.5913141
O	4.9169470	-0.9432503	2.2347297
H	3.9898406	-1.2355734	2.2128076
C	4.9571899	0.2568515	2.9846824
H	5.9888214	0.6137698	3.0290130
H	4.5959435	0.0664636	3.9982673
H	4.3333222	1.0116925	2.4997755
