40
0.00200426 (energy)
C	-3.4549934	-2.2165231	-2.4109559
H	-1.9737280	-3.6855248	-2.4794858
C	-2.2174310	-2.6708890	-2.1710309
H	-3.7633184	-1.2043200	-2.1714341
H	-4.1921722	-2.8588393	-2.8829432
C	-1.1278288	-1.9147276	-1.5774592
C	-1.3003313	-0.9448828	-0.6596502
H	-2.3020124	-0.7243256	-0.3030478
O	0.1136126	-2.2517426	-2.0860952
C	0.7276838	-3.2960669	-1.3305771
H	1.7225312	-3.4726029	-1.7500152
H	0.1562394	-4.2267246	-1.4098707
H	0.8467853	-3.0173401	-0.2785086
S	0.0000000	0.0000000	0.0000000
C	-0.9548075	1.1875640	0.9244918
C	-1.1892526	0.9916941	2.2890236
C	-1.9353530	1.9228396	3.0145683
H	-0.7924703	0.1153247	2.7955891
C	-2.4454604	3.0549554	2.3802311
H	-2.1150332	1.7661777	4.0750777
C	-1.4622150	2.3289978	0.2951738
C	-2.2081534	3.2593524	1.0215771
H	-3.0239321	3.7809343	2.9461058
H	-2.6000608	4.1447446	0.5276212
H	-1.2783713	2.5012004	-0.7627768
C	3.5214324	-0.4174357	-0.1592008
C	3.1671767	0.6227619	0.6058938
H	3.1007898	-0.5471075	-1.1505297
H	4.2365484	-1.1597549	0.1861032
H	2.4546897	1.3626579	0.2626476
C	3.7401996	0.7997420	1.9573554
O	4.5494762	0.0536770	2.4819215
O	3.2021074	1.9239918	2.4918992
C	3.6535137	2.2563690	3.8126662
C	2.8068681	1.5436168	4.8505096
H	3.5401886	3.3395024	3.9263125
H	4.7184099	2.0293891	3.9394167
H	1.7471523	1.7815170	4.7114733
H	3.1047408	1.8361449	5.8613226
H	2.9041530	0.4572749	4.7581827
