40
-0.00258983 (energy)
C	1.1332179	-2.2814821	-4.0216066
H	0.5894619	-3.9071884	-2.8307169
C	0.7469191	-2.8309717	-2.8621206
H	1.3502836	-1.2234770	-4.1240655
H	1.2632503	-2.9001721	-4.9042667
C	0.5645310	-2.1312274	-1.6017902
C	0.1553439	-0.8521047	-1.5061836
H	-0.0919236	-0.3053693	-2.4112334
O	0.9033863	-2.8932290	-0.4981612
C	-0.2170233	-3.6217259	0.0043117
H	0.1057957	-4.1546446	0.9035337
H	-0.5622071	-4.3631988	-0.7237172
H	-1.0408315	-2.9557807	0.2810403
S	0.0000000	0.0000000	0.0000000
C	-0.3377719	1.6317561	-0.6324023
C	-1.6567708	2.0808134	-0.7501561
C	-1.9221579	3.3600113	-1.2434463
H	-2.4848096	1.4395950	-0.4581648
C	-0.8704849	4.1963109	-1.6160942
H	-2.9491486	3.7045890	-1.3332484
C	0.7134861	2.4778679	-1.0002697
C	0.4469859	3.7566958	-1.4934455
H	-1.0775019	5.1930849	-1.9975054
H	1.2676935	4.4102272	-1.7777674
H	1.7450115	2.1472739	-0.9034464
C	5.0359434	1.3251289	0.7212581
C	5.0104261	2.3312647	1.6043874
H	5.4726911	0.3672331	0.9823618
H	4.6229161	1.4352726	-0.2782120
H	5.4218312	2.2223603	2.6002727
C	4.4153511	3.6372276	1.2487576
O	3.9157816	3.9129928	0.1712164
O	4.5325710	4.4532895	2.3255679
C	3.9977258	5.7743160	2.1597445
C	5.0416351	6.6890499	1.5469977
H	3.7294852	6.1383148	3.1569846
H	3.0775638	5.7605104	1.5641769
H	5.9531230	6.6929769	2.1537100
H	4.6637579	7.7125024	1.4708558
H	5.3260947	6.3463143	0.5471265
