31
-0.00290853 (energy)
C	-3.5899161	0.2333436	0.0375382
O	-4.6852113	-0.1474109	-0.3822199
O	-3.3140565	1.5629405	0.2780114
H	-4.0813871	2.1191393	0.0208755
N	-1.1267687	-0.1988042	-0.0580097
C	-1.7106664	-0.4132171	-2.3985924
H	-2.7041940	-0.8002135	-2.2122160
H	-1.4210126	-0.3115564	-3.4365923
C	0.5314114	0.4762724	-1.7538553
H	1.3301947	-0.1818085	-1.3876986
H	0.6424367	0.5668666	-2.8362198
H	0.6940589	1.4673695	-1.3120174
C	-0.7553745	-0.6318494	2.2187932
C	-0.2657874	0.2411430	1.0516195
C	-2.4249497	-0.6759230	0.4126549
C	-2.2756882	-0.7497771	1.9680174
H	-0.2810578	-1.6184653	2.1662869
H	-0.5290989	-0.1951594	3.1962115
H	0.7885728	0.0708436	0.8222898
H	-0.4007832	1.3114564	1.2749853
H	-2.6581724	-1.6550692	-0.0229328
H	-2.7978766	0.0927090	2.4331016
H	-2.7051108	-1.6728789	2.3652554
C	-0.8407716	-0.0670218	-1.4195591
C	3.1050690	-2.1001458	0.7813468
H	3.1310678	-1.7059109	1.8150227
O	2.8969852	-1.3364644	-0.1681288
C	3.3354239	-3.5794175	0.6480433
H	2.5794576	-4.1324380	1.2213933
H	3.2929049	-3.8799301	-0.4009854
H	4.3127972	-3.8488724	1.0698830
