40
0.00506427 (energy)
C	1.7875738	3.8535945	-2.1487328
H	0.6753614	4.7709215	-0.6393274
C	0.9387988	3.8269753	-1.1121780
H	2.0672802	2.9614128	-2.6989747
H	2.2101289	4.7949862	-2.4863767
C	0.2778526	2.6488945	-0.5768128
C	0.8199018	1.4164698	-0.5832475
H	1.8235165	1.2805895	-0.9749998
O	-0.9956742	2.9040485	-0.1009003
C	-0.9821780	3.2478742	1.2847786
H	-2.0191229	3.3806535	1.6071597
H	-0.4521230	4.1915786	1.4503795
H	-0.5357188	2.4548938	1.8935299
S	0.0000000	0.0000000	0.0000000
C	1.1724942	-1.2382760	-0.5182474
C	2.1337341	-1.7150507	0.3784022
C	3.0513148	-2.6868786	-0.0262073
H	2.1738765	-1.3347693	1.3961658
C	3.0083702	-3.1888833	-1.3263713
H	3.7967555	-3.0543210	0.6743727
C	1.1290618	-1.7511860	-1.8187903
C	2.0470611	-2.7228299	-2.2223135
H	3.7211927	-3.9474175	-1.6400577
H	2.0088033	-3.1181220	-3.2341355
H	0.3799130	-1.3989026	-2.5240450
C	4.5082581	0.4537219	0.2132755
C	5.5166779	0.2893366	-0.6521404
H	3.7304263	-0.2960925	0.3094224
H	4.4373161	1.3373218	0.8424671
H	5.5879839	-0.5906207	-1.2794301
C	6.5770452	1.3113231	-0.7836352
O	6.6342840	2.3516634	-0.1502894
O	7.4526107	0.8814963	-1.7258941
C	8.5609269	1.7557174	-1.9828773
C	8.1821936	2.7885222	-3.0277785
H	9.3785948	1.1330586	-2.3605691
H	8.9172416	2.2300114	-1.0610993
H	7.8301164	2.2993609	-3.9419383
H	9.0382719	3.4229652	-3.2740626
H	7.3658796	3.4254990	-2.6727862
