40
0.00388903 (energy)
C	2.0144692	-2.8187508	3.2648462
H	1.9955382	-1.0146716	4.3144888
C	1.7833769	-1.5026699	3.3653489
H	1.8677140	-3.3697574	2.3418919
H	2.3845932	-3.3765249	4.1196391
C	1.3197025	-0.6309326	2.2993187
C	0.5005422	-1.0287625	1.3076347
H	0.1250449	-2.0476720	1.3065795
O	1.8447421	0.6469195	2.3692757
C	1.0128709	1.5180211	3.1358764
H	1.4550624	2.5181309	3.1032963
H	0.9702202	1.2000781	4.1828020
H	0.0015613	1.5796931	2.7209412
S	0.0000000	0.0000000	0.0000000
C	-0.8376173	-1.2095577	-1.0059910
C	-2.2240669	-1.3643571	-0.9107492
C	-2.8813790	-2.3102748	-1.7002385
H	-2.8007197	-0.7500700	-0.2235876
C	-2.1562658	-3.1011138	-2.5907799
H	-3.9592707	-2.4270134	-1.6225872
C	-0.1164082	-2.0000669	-1.9067283
C	-0.7746482	-2.9456133	-2.6955930
H	-2.6687988	-3.8354785	-3.2071462
H	-0.2093768	-3.5572681	-3.3940556
H	0.9607327	-1.8832011	-2.0006528
C	3.4144343	-0.2327670	0.1995490
C	3.4057609	0.4320554	-0.9626961
H	3.2720092	0.2892192	1.1396201
H	3.5634391	-1.3088660	0.2379191
H	3.2575122	1.5041558	-1.0017436
C	3.6000850	-0.2791140	-2.2443365
O	3.7792635	-1.4793193	-2.3631361
O	3.5461445	0.6394891	-3.2405679
C	3.7117671	0.1205799	-4.5679601
C	5.1852222	0.0498869	-4.9227496
H	3.2025327	0.8118517	-5.2474890
H	3.2255168	-0.8556091	-4.6784372
H	5.6556705	1.0320428	-4.8088484
H	5.3200097	-0.2887273	-5.9538735
H	5.7171259	-0.6371326	-4.2570094
