18
0.00152051 (energy)
C	0.6836853	-1.7978554	2.3900229
O	-0.0312765	-2.2906804	3.2581427
H	1.2759398	-0.8947888	2.6207652
C	0.7817515	-2.2581123	0.9542824
Cl	0.4757232	-4.0147889	0.8607083
H	1.8106500	-2.1017133	0.6146655
C	-0.2157509	-1.4969719	0.0757156
H	-1.2426167	-1.6387107	0.4337357
H	-0.1714180	-1.8962460	-0.9445832
N	0.0577047	-0.0538878	-0.0016467
H	-0.3393271	0.4150073	0.8156149
H	-0.4624427	0.3337288	-0.7927349
O	-2.3938119	0.6730652	-4.1063314
H	-1.6462223	0.4084651	-3.5436980
C	-3.5073831	-0.1076157	-3.7128984
H	-4.3680532	0.1657051	-4.3278471
H	-3.7366635	0.0865199	-2.6622591
H	-3.2804681	-1.1666970	-3.8577667
