31
-0.00422407 (energy)
C	-3.4497840	0.0774877	1.0180089
O	-4.3757075	-0.4020107	1.6764841
O	-3.6241190	0.5451897	-0.2675322
H	-4.5477866	0.3885432	-0.5617637
N	-0.9952995	-0.0916504	0.5598885
C	-1.6107744	-2.4339068	0.5760878
H	-2.4029661	-2.3175630	1.3044393
H	-1.4344787	-3.4384839	0.2135653
C	0.2347798	-1.6445065	-0.9086908
H	1.2287946	-1.3981871	-0.5131438
H	0.2443122	-2.6946958	-1.2071169
H	0.0800343	-1.0372788	-1.8093998
C	-0.3652210	2.0753652	1.2051308
C	-0.2685243	1.0775170	0.0393459
C	-2.0265321	0.2890130	1.5222274
C	-1.7690215	1.8079214	1.7933205
H	0.4096885	1.8523325	1.9473679
H	-0.2416291	3.1137648	0.8831110
H	0.7659910	0.8220992	-0.2010897
H	-0.7426202	1.4833475	-0.8685206
H	-1.9417599	-0.3099841	2.4370349
H	-2.5158658	2.4122361	1.2681594
H	-1.8380314	2.0388295	2.8592649
C	-0.8518016	-1.4096310	0.1179460
C	3.4668113	-1.0527561	1.1363625
H	2.9976707	-2.0048988	0.8234499
O	3.0303761	0.0225005	0.7104991
C	4.6278345	-1.1845822	2.0817328
H	5.4176740	-1.7970079	1.6266116
H	5.0271440	-0.2005576	2.3363389
H	4.3125642	-1.7030915	2.9969192
