18
0.000976221 (energy)
C	0.5704534	2.9040587	-0.8080503
O	0.5401307	3.9431055	-0.1544899
H	-0.2747155	2.6550871	-1.4738126
C	1.6411309	1.8405289	-0.7348500
Cl	3.2075483	2.5880125	-0.3154141
H	1.7596936	1.4055628	-1.7324370
C	1.2685376	0.7717949	0.2972388
H	1.1288271	1.2161461	1.2900906
H	2.0907618	0.0509003	0.3788068
N	0.0541655	0.0199557	-0.0538917
H	-0.7722819	0.5503650	0.2308261
H	0.0196876	-0.8276369	0.5179636
O	-2.5810731	-3.1410951	-1.2033794
H	-1.8747575	-2.8694894	-0.5927992
C	-3.7689667	-2.4995524	-0.7772051
H	-4.5857444	-2.7843910	-1.4445584
H	-3.6323075	-1.4160070	-0.8140109
H	-4.0079424	-2.8130293	0.2419874
