18
0.00172087 (energy)
C	1.8610259	-2.4022847	-0.4213429
O	1.7356398	-3.5831980	-0.1092514
H	2.4955955	-1.7410198	0.1947633
C	1.1449100	-1.7025427	-1.5528654
Cl	0.8121882	-2.8642269	-2.8674406
H	1.8185137	-0.9458399	-1.9677045
C	-0.1602940	-1.0731561	-1.0563370
H	-0.8218450	-1.8319806	-0.6212999
H	-0.6914145	-0.6315766	-1.9079904
N	0.0464457	-0.0080191	-0.0633635
H	0.1724345	-0.4220673	0.8629757
H	-0.8177677	0.5334879	0.0174188
O	6.0754867	-2.8148714	-0.5187628
H	5.3503480	-2.1742787	-0.6150676
C	7.2814159	-2.1205029	-0.7793011
H	8.1195928	-2.8140875	-0.6792053
H	7.3970002	-1.3064450	-0.0595436
H	7.2608348	-1.7216827	-1.7964782
