40
-0.000600473 (energy)
C	-3.1514350	-2.3487902	-2.6859458
H	-1.3861468	-2.8685515	-3.6710426
C	-1.8267786	-2.2736298	-2.8735884
H	-3.6712281	-1.7568032	-1.9400527
H	-3.7559473	-3.0038781	-3.3057839
C	-0.9054008	-1.4210008	-2.1418598
C	-1.0701597	-1.0711094	-0.8522242
H	-1.9161719	-1.4678608	-0.2990266
O	0.1417569	-0.9546441	-2.9160942
C	1.2675827	-1.8311908	-2.8642610
H	2.0730156	-1.3770249	-3.4489196
H	1.0303978	-2.8023603	-3.3109521
H	1.6267621	-1.9674029	-1.8390009
S	0.0000000	0.0000000	0.0000000
C	-0.9284191	0.1837841	1.5102688
C	-0.6307148	-0.6134826	2.6197798
C	-1.3561868	-0.4685384	3.8041760
H	0.1670973	-1.3504283	2.5700290
C	-2.3781019	0.4766490	3.8853528
H	-1.1211448	-1.0906637	4.6639570
C	-1.9492746	1.1357205	1.5999683
C	-2.6740706	1.2797565	2.7846919
H	-2.9407827	0.5909853	4.8085032
H	-3.4663240	2.0211715	2.8490475
H	-2.1847419	1.7712405	0.7494501
C	3.7711444	-0.0230524	-0.3866562
C	4.3277279	-0.0517608	0.8308282
H	2.7492748	0.3141479	-0.5229153
H	4.3214343	-0.3344961	-1.2708777
H	3.7801011	0.2582270	1.7122556
C	5.7205887	-0.5115520	1.0169910
O	6.4613722	-0.8914295	0.1261239
O	6.0090237	-0.4354516	2.3399544
C	7.3351412	-0.8423244	2.7067438
C	7.3772517	-2.3406368	2.9417546
H	7.5857496	-0.3172901	3.6343592
H	8.0698416	-0.5337767	1.9540133
H	6.6394542	-2.6323390	3.6964002
H	8.3696859	-2.6525099	3.2791762
H	7.1309429	-2.8888985	2.0269495
