40
0.00184054 (energy)
C	0.4269631	-1.4354592	-4.5188297
H	-0.2849130	-3.1955403	-3.6515601
C	0.0455428	-2.1750825	-3.4685682
H	0.8075405	-0.4247924	-4.4153717
H	0.3844651	-1.8469589	-5.5226407
C	0.0790636	-1.7647751	-2.0750602
C	-0.1042549	-0.4965966	-1.6617238
H	-0.3266194	0.2731548	-2.3946718
O	0.3711565	-2.8005318	-1.2059478
C	-0.8122667	-3.4558459	-0.7492450
H	-0.5137824	-4.2218375	-0.0274564
H	-1.3304048	-3.9526263	-1.5761078
H	-1.4907441	-2.7597882	-0.2453661
S	0.0000000	0.0000000	0.0000000
C	-0.1108309	1.7645460	-0.2252654
C	-1.3424506	2.4137478	-0.0951630
C	-1.4297291	3.7965621	-0.2692896
H	-2.2401841	1.8486946	0.1432850
C	-0.2860528	4.5357184	-0.5691763
H	-2.3893780	4.2967322	-0.1672511
C	1.0344289	2.5121088	-0.5183602
C	0.9460036	3.8947009	-0.6923306
H	-0.3540520	5.6125821	-0.7019529
H	1.8391570	4.4708999	-0.9198713
H	2.0013907	2.0231329	-0.6110923
C	6.4812506	-3.1496174	1.0555371
C	5.9098750	-3.5126580	-0.0997157
H	7.5556163	-3.0190085	1.1274235
H	5.8911157	-2.9755161	1.9516919
H	6.4971374	-3.6864310	-0.9929277
C	4.4454120	-3.6910016	-0.1980398
O	3.6543284	-3.5341729	0.7164561
O	4.1570190	-4.0583652	-1.4712607
C	2.7662099	-4.2718840	-1.7518451
C	2.3771618	-5.6994010	-1.4160180
H	2.6250959	-4.0944693	-2.8230812
H	2.1362931	-3.5491003	-1.2204525
H	3.0139193	-6.4084301	-1.9552238
H	1.3334255	-5.8895726	-1.6815235
H	2.5085215	-5.9016041	-0.3483168
