18
0.00101379 (energy)
C	-0.5111927	-2.6041891	1.5390907
O	-0.8754147	-2.7985122	2.6954902
H	0.5569331	-2.7109249	1.2797621
C	-1.3851355	-2.1310645	0.4010304
Cl	-3.0582967	-2.7048387	0.6452362
H	-1.0265143	-2.5975189	-0.5221399
C	-1.3564136	-0.6029531	0.2996591
H	-1.6950683	-0.1406904	1.2347248
H	-2.0491215	-0.2833934	-0.4880161
N	-0.0286859	-0.0652753	-0.0339515
H	0.5371001	0.0032527	0.8149322
H	-0.1385280	0.9037045	-0.3431982
O	3.5144345	-1.4429244	2.7427299
H	3.0943635	-1.0721621	1.9480380
C	4.6880808	-0.6886353	2.9833446
H	5.1862976	-1.0806898	3.8731157
H	4.4219563	0.3582019	3.1489059
H	5.3593346	-0.7737825	2.1252660
