18
0.0010053 (energy)
C	2.8069783	-0.0434423	1.2372974
O	3.5384101	0.8704975	1.6079728
H	2.9918294	-0.5268117	0.2617357
C	1.5774851	-0.5443093	1.9586040
Cl	1.7760147	-0.3193193	3.7187993
H	1.4969872	-1.6227602	1.7886153
C	0.3274397	0.1912450	1.4660882
H	0.4227340	1.2731706	1.6180013
H	-0.5378891	-0.1421052	2.0513049
N	0.0249763	-0.0572399	0.0483345
H	0.5913600	0.5608900	-0.5369332
H	-0.9383894	0.2344212	-0.1346430
O	2.9578102	-4.2796160	-0.6347459
H	3.3404473	-3.4491064	-0.3041368
C	3.0382977	-5.2228712	0.4179100
H	2.6151210	-6.1711866	0.0784419
H	2.4701061	-4.8598968	1.2778569
H	4.0846273	-5.3719389	0.6955858
