40
0.00352221 (energy)
C	-1.0599798	3.8183018	2.6381200
H	-1.9239382	4.3868293	0.8250668
C	-1.3294589	3.6338546	1.3385303
H	-0.4404982	3.1354110	3.2098655
H	-1.4461592	4.6890108	3.1591822
C	-0.8548845	2.5362296	0.5130978
C	-0.6280441	1.2926220	0.9764693
H	-0.8399411	1.0677236	2.0174767
O	-0.6056351	2.9039983	-0.7968973
C	-1.7571254	2.7283379	-1.6225594
H	-1.4755879	2.9825839	-2.6486735
H	-2.5661683	3.3997825	-1.3166647
H	-2.1067092	1.6908303	-1.6130166
S	0.0000000	0.0000000	0.0000000
C	0.2517408	-1.2199967	1.2747098
C	-0.7218151	-2.1938750	1.5176639
C	-0.5243335	-3.1514757	2.5147168
H	-1.6381030	-2.2143019	0.9327985
C	0.6484558	-3.1420510	3.2688759
H	-1.2840639	-3.9064633	2.6999504
C	1.4296740	-1.2202075	2.0289300
C	1.6260648	-2.1781204	3.0256642
H	0.8029186	-3.8894201	4.0431303
H	2.5433687	-2.1738220	3.6087923
H	2.2012108	-0.4764444	1.8438376
C	6.5554918	0.7860775	0.6052416
C	5.4217500	0.3998938	1.2038812
H	7.1142017	0.1002529	-0.0224334
H	6.9493761	1.7917554	0.7282489
H	5.0287604	-0.6019000	1.0819375
C	4.6599849	1.3344254	2.0597377
O	4.9735064	2.4892825	2.2936618
O	3.5716280	0.6744987	2.5279193
C	2.7065684	1.4381455	3.3806695
C	3.1829140	1.3560935	4.8188300
H	1.7070721	0.9985972	3.2985697
H	2.6293270	2.4780292	3.0426378
H	3.2533468	0.3121531	5.1415575
H	2.4968615	1.8862149	5.4854236
H	4.1814913	1.7910479	4.9273902
