40
0.00407171 (energy)
C	-2.6458948	-2.4779060	3.0857553
H	-0.9096796	-2.2361344	4.2188542
C	-1.3810734	-2.0680892	3.2526399
H	-3.1715349	-2.3841259	2.1413519
H	-3.1825279	-2.9457916	3.9054397
C	-0.5379171	-1.4579107	2.2386824
C	-1.0037521	-0.6752810	1.2471089
H	-2.0643695	-0.4459227	1.2063492
O	0.7968863	-1.8010165	2.3571926
C	1.5081092	-0.8771075	3.1812427
H	2.5609816	-1.1741776	3.1861133
H	1.1422376	-0.9082285	4.2128092
H	1.4446988	0.1439732	2.7912489
S	0.0000000	0.0000000	0.0000000
C	-1.2706830	0.6878957	-1.0434628
C	-1.6231455	2.0359591	-0.9261087
C	-2.6170643	2.5762370	-1.7448505
H	-1.1265534	2.6735682	-0.1988406
C	-3.2585591	1.7726344	-2.6866502
H	-2.8876714	3.6246899	-1.6498439
C	-1.9119592	-0.1115148	-1.9953465
C	-2.9056685	0.4297162	-2.8134274
H	-4.0303538	2.1943801	-3.3256748
H	-3.4007696	-0.1959477	-3.5516163
H	-1.6406265	-1.1587573	-2.1065829
C	3.0770849	0.3671594	-0.2053844
C	3.7201143	-0.8022144	-0.0960419
H	3.0997505	1.0915967	0.6015635
H	2.5158806	0.6259725	-1.0996602
H	4.2793240	-1.0608559	0.7946269
C	3.6892707	-1.7900678	-1.1957328
O	3.1044042	-1.6451946	-2.2557583
O	4.4167677	-2.8664556	-0.8066883
C	4.5005619	-3.9328510	-1.7629556
C	3.3177476	-4.8702249	-1.6073163
H	5.4292434	-4.4750757	-1.5568514
H	4.5740293	-3.5465462	-2.7861666
H	3.2591232	-5.2482161	-0.5813479
H	3.4027425	-5.7188281	-2.2919273
H	2.3756482	-4.3509867	-1.8097212
