18
0.0017864 (energy)
C	-1.1637090	1.1828067	2.5804397
O	-0.6406524	1.8505829	3.4682267
H	-1.3338195	0.1033828	2.7399484
C	-1.5379528	1.6763010	1.2023217
Cl	-1.9567387	3.4105744	1.2746831
H	-2.4433610	1.1492667	0.8846689
C	-0.3869865	1.4477596	0.2178062
H	0.5236579	1.9591520	0.5523600
H	-0.6581664	1.8745337	-0.7551893
N	-0.0742308	0.0263247	0.0057659
H	0.5329842	-0.3074074	0.7576478
H	0.4984042	-0.0583572	-0.8377616
O	2.7775800	2.4991392	-2.7773659
H	2.2922662	1.7233634	-2.4485771
C	3.9302474	2.6425741	-1.9679975
H	4.5004117	3.5087487	-2.3119069
H	4.5488147	1.7455922	-2.0510567
H	3.6299319	2.7961329	-0.9285935
