31
-0.00186449 (energy)
C	-0.4034940	-3.0565604	-1.8541809
O	-0.8911805	-4.1850246	-1.9520229
O	0.8927897	-2.7780698	-2.2334500
H	1.3429444	-3.5999124	-2.5270613
N	-0.3785505	-0.9788829	-0.4593295
C	-0.2876274	-2.6773664	1.2646554
H	-0.8673509	-3.4043622	0.7105820
H	0.0387742	-2.9747803	2.2529290
C	0.8541167	-0.4853645	1.6186871
H	0.2919700	0.4260753	1.8604820
H	1.1463538	-0.9574508	2.5587822
H	1.7680132	-0.1782761	1.0948185
C	-1.1234023	0.5449648	-2.0817897
C	0.0078805	0.3038256	-1.0687957
C	-1.1471975	-1.8127774	-1.3803308
C	-1.4588885	-0.8744686	-2.5924823
H	-1.9889248	0.9827240	-1.5715132
H	-0.8277363	1.2179988	-2.8922539
H	0.0650217	1.0945798	-0.3173225
H	0.9842805	0.2389277	-1.5748772
H	-2.0628276	-2.1775486	-0.8992692
H	-0.8120176	-1.1302955	-3.4379865
H	-2.4966554	-0.9781717	-2.9189849
C	0.0317598	-1.4490274	0.7911053
C	4.7542172	-0.3067174	-0.6444946
H	4.5441243	0.2457167	-1.5800481
O	3.8873272	-0.3925738	0.2325131
C	6.1260864	-0.9128532	-0.5462489
H	6.8917521	-0.1306833	-0.6357655
H	6.2455263	-1.4363390	0.4046840
H	6.2898359	-1.6130257	-1.3761633
