19
0.0012965 (energy)
C	-2.8029745	-0.5030846	0.2661538
H	-3.8656025	-0.7104401	0.3703977
C	-1.8889297	-1.5218983	0.5299690
H	-2.2405745	-2.5038548	0.8343310
C	-0.5270711	-1.2768659	0.4006547
H	0.1914513	-2.0660776	0.6031006
C	-0.0827921	-0.0132983	0.0076068
H	0.9857910	0.1583410	-0.0905732
C	-0.9870013	1.0231900	-0.2580491
N	-0.4996878	2.2558561	-0.6618096
H	-1.1232667	3.0291804	-0.8382655
H	0.4955078	2.4160415	-0.7246242
C	-3.3870901	1.8412134	-0.4049394
H	-4.4073055	1.4725826	-0.2539599
H	-3.3102719	2.1825172	-1.4422707
H	-3.2403858	2.6895417	0.2714314
C	-2.3650883	0.7729937	-0.1298694
Br	-1.5328296	-0.4589369	-3.2840176
H	-0.4447271	0.4922770	-3.1562052
