40
0.00263126 (energy)
C	0.8699861	-3.4103064	3.2055573
H	0.1414234	-1.9142642	4.4656619
C	0.4214101	-2.1707197	3.4459270
H	1.2072051	-3.7307010	2.2254447
H	0.9294912	-4.1367078	4.0102775
C	0.3186241	-1.0941849	2.4754384
C	0.0588072	-1.2847859	1.1681910
H	-0.1226984	-2.2918957	0.8049260
O	0.5661032	0.1552347	3.0150414
C	-0.6312780	0.7722299	3.4884331
H	-0.3731257	1.7726746	3.8479917
H	-1.0581757	0.2106259	4.3258812
H	-1.3736283	0.8786442	2.6907402
S	0.0000000	0.0000000	0.0000000
C	-0.1472934	-0.9750114	-1.4846912
C	-1.4058547	-1.2204639	-2.0424124
C	-1.5219180	-1.9824124	-3.2069194
H	-2.3024601	-0.8200092	-1.5757187
C	-0.3806435	-2.4974541	-3.8205186
H	-2.5024354	-2.1706047	-3.6366606
C	0.9946878	-1.4874916	-2.1088850
C	0.8774761	-2.2492785	-3.2731821
H	-0.4713078	-3.0882841	-4.7285874
H	1.7682004	-2.6450659	-3.7542912
H	1.9813041	-1.2953113	-1.6937143
C	3.0931850	1.3164832	2.6352326
C	4.0650748	1.2444532	1.7170171
H	2.4521262	0.4644518	2.8341651
H	2.9167788	2.2243975	3.2064035
H	4.2413621	0.3403303	1.1474678
C	4.9389947	2.4057554	1.4454159
O	4.8640295	3.4883008	2.0014615
O	5.8182014	2.0456811	0.4776556
C	6.7560540	3.0591974	0.0879317
C	6.1590729	3.9361755	-0.9967186
H	7.6405758	2.5440374	-0.3008705
H	7.0826047	3.6532858	0.9493336
H	5.8395051	3.3286978	-1.8498144
H	6.8873584	4.6751254	-1.3425468
H	5.2723257	4.4638840	-0.6315742
