40
0.00380425 (energy)
C	-3.7166591	2.4640200	1.6666473
H	-3.5913253	0.9772612	3.1263217
C	-3.1942293	1.3425567	2.1813904
H	-3.4042718	2.8696174	0.7101459
H	-4.5007434	2.9962008	2.1965246
C	-2.1675264	0.5166822	1.5688932
C	-1.1874615	0.9988585	0.7816778
H	-1.1225120	2.0693275	0.6112262
O	-2.3218465	-0.8328576	1.8304159
C	-1.6165565	-1.2262682	3.0078277
H	-1.7343214	-2.3077536	3.1233060
H	-2.0351233	-0.7427860	3.8966510
H	-0.5466717	-1.0070957	2.9301641
S	0.0000000	0.0000000	0.0000000
C	0.7851294	1.2368339	-1.0151179
C	1.9520868	1.8695886	-0.5756769
C	2.5690991	2.8371488	-1.3714380
H	2.3884417	1.6132348	0.3865837
C	2.0248981	3.1721005	-2.6107653
H	3.4760290	3.3263460	-1.0255012
C	0.2481364	1.5711115	-2.2626242
C	0.8658572	2.5387496	-3.0574468
H	2.5071363	3.9234531	-3.2310915
H	0.4444159	2.7946698	-4.0261549
H	-0.6523053	1.0793353	-2.6232801
C	3.0846175	-0.5020944	2.6386942
C	4.0844018	-0.8677289	1.8265240
H	2.6837066	-1.1928374	3.3726101
H	2.6459569	0.4912624	2.5888660
H	4.5218627	-1.8572415	1.8754566
C	4.6310209	0.0735082	0.8258211
O	4.2444397	1.2164303	0.6497665
O	5.6204101	-0.5650208	0.1530598
C	6.2735722	0.2080992	-0.8639615
C	5.5189720	0.0929973	-2.1751722
H	7.2809691	-0.2044394	-0.9818567
H	6.3883225	1.2544177	-0.5579556
H	5.4140931	-0.9569794	-2.4675325
H	6.0410517	0.6308052	-2.9715637
H	4.5072574	0.5005836	-2.0833334
