40
0.000497737 (energy)
C	-3.1514350	-2.6415714	-2.3985873
H	-1.3861469	-3.2709714	-3.3175123
C	-1.8267787	-2.5884463	-2.5936169
H	-3.6712281	-1.9678800	-1.7255754
H	-3.7559473	-3.3634774	-2.9391344
C	-0.9054008	-1.6574615	-1.9645936
C	-1.0701597	-1.1618522	-0.7236443
H	-1.9161719	-1.4924825	-0.1285620
O	0.1417569	-1.2830576	-2.7872412
C	1.2675827	-2.1478610	-2.6351364
H	2.0730156	-1.7638069	-3.2680620
H	1.0303978	-3.1638848	-2.9673996
H	1.6267621	-2.1654885	-1.6010178
S	0.0000000	0.0000000	0.0000000
C	-0.9284191	0.3559253	1.4791909
C	-0.6307148	-0.3087168	2.6728825
C	-1.3561868	-0.0287799	3.8328129
H	0.1670973	-1.0465022	2.7080508
C	-2.3781019	0.9194781	3.8049600
H	-1.1211448	-0.5481034	4.7583216
C	-1.9492746	1.3118658	1.4590297
C	-2.6740706	1.5909382	2.6193895
H	-2.9407827	1.1390222	4.7088847
H	-3.4663240	2.3348397	2.5982166
H	-2.1847419	1.8455588	0.5411850
C	6.8950704	-1.2552847	3.2498757
C	6.3899102	-0.9560162	2.0464933
H	7.3670303	-2.2148137	3.4316612
H	6.8486569	-0.5514829	4.0770229
H	6.4356369	-1.6567081	1.2219681
C	5.7462968	0.3517772	1.7983723
O	5.6177084	1.2406634	2.6230284
O	5.3317054	0.3715512	0.5072716
C	4.6826466	1.5798518	0.0860827
C	3.1995766	1.5145015	0.3994132
H	4.8267486	1.6597583	-0.9964077
H	5.1495156	2.4623430	0.5386667
H	2.7481005	0.6292621	-0.0604191
H	2.6853407	2.4058400	0.0291150
H	3.0289404	1.4353111	1.4777172
