40
0.00475538 (energy)
C	1.4782018	-3.0828389	3.3126555
H	1.0953237	-1.4217552	4.5172362
C	1.1300934	-1.8022556	3.4983978
H	1.5758957	-3.5255553	2.3270347
H	1.6981624	-3.7194942	4.1641612
C	0.8401576	-0.8337745	2.4546919
C	0.2860971	-1.1513306	1.2694053
H	-0.0006689	-2.1808357	1.0768946
O	1.2377609	0.4519141	2.7746652
C	0.1960871	1.1798939	3.4254075
H	0.5564586	2.1982816	3.5981314
H	-0.0455860	0.7363890	4.3969308
H	-0.7042841	1.2384117	2.8052226
S	0.0000000	0.0000000	0.0000000
C	-0.5063350	-1.1215052	-1.2893803
C	-1.8647467	-1.3585438	-1.5213437
C	-2.2623304	-2.2353856	-2.5328714
H	-2.6210657	-0.8623179	-0.9181774
C	-1.3041955	-2.8744214	-3.3189313
H	-3.3194763	-2.4165265	-2.7093329
C	0.4501613	-1.7591890	-2.0861544
C	0.0515114	-2.6357863	-3.0972434
H	-1.6142899	-3.5548599	-4.1080662
H	0.7989711	-3.1286334	-3.7136110
H	1.5100587	-1.5760012	-1.9256189
C	4.1481311	1.9883786	3.2777527
C	3.8179465	1.2282095	2.2260880
H	3.6989089	1.8174509	4.2501062
H	4.8715155	2.7951725	3.1913680
H	3.0972448	0.4243265	2.3113117
C	4.4299320	1.4610437	0.9004230
O	5.2525874	2.3245621	0.6468774
O	3.9095102	0.5527718	0.0382041
C	4.3993329	0.6290008	-1.3082470
C	3.5815799	1.6261755	-2.1075379
H	4.2913190	-0.3692903	-1.7449207
H	5.4670146	0.8762266	-1.3311555
H	2.5187432	1.3648103	-2.0760483
H	3.9089437	1.6484500	-3.1507927
H	3.6741677	2.6340357	-1.6906774
