40
-0.000654683 (energy)
C	-2.0434083	-3.9573510	1.6812252
H	-3.0860098	-3.7536307	-0.1155191
C	-2.3497225	-3.3076101	0.5500393
H	-1.3509277	-3.5593295	2.4154183
H	-2.5087413	-4.9118078	1.9076142
C	-1.8292420	-2.0153481	0.1371235
C	-0.5950708	-1.5715673	0.4414414
H	0.0785403	-2.2170614	0.9971044
O	-2.7476522	-1.2528840	-0.5619028
C	-2.6627922	-1.4827868	-1.9684759
H	-3.3723936	-0.8115209	-2.4611040
H	-2.9420364	-2.5122180	-2.2159716
H	-1.6621615	-1.2623254	-2.3542955
S	0.0000000	0.0000000	0.0000000
C	1.5394956	-0.0186738	0.8979172
C	2.7245233	-0.3873462	0.2536606
C	3.9315028	-0.4000633	0.9559081
H	2.7162543	-0.6654200	-0.7973745
C	3.9591187	-0.0398794	2.3026762
H	4.8500683	-0.6874797	0.4507967
C	1.5744428	0.3492986	2.2468982
C	2.7818209	0.3361612	2.9481193
H	4.8994419	-0.0473182	2.8482274
H	2.8033742	0.6231531	3.9962959
H	0.6630949	0.6497146	2.7586666
C	2.5960209	-4.6834738	-4.4905707
C	2.9882276	-3.5040507	-3.9925621
H	1.6448327	-5.1191267	-4.2043268
H	3.2137318	-5.2380292	-5.1924006
H	2.3734504	-2.9510213	-3.2931986
C	4.2848627	-2.9099762	-4.3823556
O	5.0843035	-3.4102707	-5.1552145
O	4.4139426	-1.7297294	-3.7269368
C	5.6238427	-1.0056274	-3.9924287
C	6.7266230	-1.4677644	-3.0584864
H	5.4091039	0.0529133	-3.8126661
H	5.9226856	-1.0992595	-5.0429122
H	6.4134990	-1.3666870	-2.0141388
H	7.6365839	-0.8810328	-3.2126327
H	6.9608769	-2.5247492	-3.2198415
