40
-0.0012492 (energy)
C	-3.0667351	3.3961502	-1.3129975
H	-1.3228784	4.5323225	-1.1552446
C	-1.7696112	3.5502105	-1.0141524
H	-3.5949745	2.4607417	-1.1614587
H	-3.6415310	4.2304328	-1.7033267
C	-0.8923886	2.5337467	-0.4586147
C	-1.0111691	1.2176789	-0.7166578
H	-1.7792174	0.8796106	-1.4058511
O	0.0551960	3.0435776	0.4106508
C	1.2618925	3.3910763	-0.2687848
H	1.9821288	3.7321183	0.4807248
H	1.0932880	4.2109331	-0.9747361
H	1.6946347	2.5306109	-0.7894145
S	0.0000000	0.0000000	0.0000000
C	-0.8477644	-1.4531102	-0.5885719
C	-0.4067277	-2.1042103	-1.7447864
C	-1.0690445	-3.2440995	-2.2053317
H	0.4543502	-1.7298894	-2.2929623
C	-2.1710495	-3.7398312	-1.5095483
H	-0.7225419	-3.7467274	-3.1046699
C	-1.9488510	-1.9594313	0.1097274
C	-2.6103880	-3.0992135	-0.3516951
H	-2.6846560	-4.6288449	-1.8669723
H	-3.4654849	-3.4885602	0.1948593
H	-2.2965107	-1.4709558	1.0170511
C	4.5780839	-5.6672045	-0.1420538
C	4.6139443	-4.5204835	0.5483248
H	5.0825335	-6.5539104	0.2264177
H	4.0462958	-5.7456353	-1.0868891
H	5.1436498	-4.4415064	1.4896412
C	3.9266051	-3.3115084	0.0462593
O	3.2927898	-3.2427262	-0.9930955
O	4.1348540	-2.3142747	0.9414551
C	3.5289205	-1.0553873	0.6147831
C	4.4540993	-0.2430633	-0.2718494
H	3.3644744	-0.5250729	1.5585309
H	2.5466131	-1.1942809	0.1485531
H	5.4295259	-0.1120811	0.2080588
H	4.0270053	0.7423359	-0.4783024
H	4.6334306	-0.7525919	-1.2238727
