40
0.00237838 (energy)
C	-1.2020230	-3.3596519	3.1512763
H	-1.6792062	-1.6515544	4.2519618
C	-1.2489364	-2.0321727	3.3278304
H	-0.7519838	-3.8180777	2.2770334
H	-1.6033964	-4.0271384	3.9076729
C	-0.7248442	-1.0283008	2.4173861
C	-0.6858007	-1.1759001	1.0796942
H	-1.0978077	-2.0759537	0.6332308
O	-0.2165849	0.0845918	3.0628387
C	-1.2123584	1.0922403	3.2405578
H	-0.7323519	1.9597891	3.7029077
H	-2.0060440	0.7464975	3.9109943
H	-1.6407682	1.4100455	2.2844266
S	0.0000000	0.0000000	0.0000000
C	-0.0796235	-0.9304274	-1.5180960
C	-1.1564493	-0.7570077	-2.3931094
C	-1.2184359	-1.4839747	-3.5838190
H	-1.9520672	-0.0554024	-2.1547602
C	-0.2024439	-2.3828761	-3.9063342
H	-2.0575717	-1.3458092	-4.2607751
C	0.9406222	-1.8276251	-1.8505263
C	0.8775977	-2.5540404	-3.0413219
H	-0.2497943	-2.9465757	-4.8347144
H	1.6732179	-3.2498886	-3.2948709
H	1.7904019	-1.9647552	-1.1858598
C	3.9024478	3.1979138	5.0564210
C	4.0322519	3.1887021	3.7237757
H	4.2340122	4.0490244	5.6413687
H	3.4639547	2.3589580	5.5907811
H	4.4691320	4.0240820	3.1906921
C	3.5805921	2.0286055	2.9260883
O	3.0724574	1.0173825	3.3798927
O	3.8377356	2.2968718	1.6218151
C	3.4555153	1.2713680	0.6939588
C	4.5733101	0.2562945	0.5452853
H	3.2737309	1.7618993	-0.2679504
H	2.5161033	0.7922851	0.9932485
H	5.5034183	0.7498433	0.2448961
H	4.3155730	-0.4974034	-0.2040843
H	4.7735777	-0.2495413	1.4951012
