40
-0.000463783 (energy)
C	-0.6668904	-2.1515931	4.1938726
H	-1.2145984	-0.2026248	4.7021525
C	-0.8195691	-0.8486521	3.9207295
H	-0.2416737	-2.8524619	3.4832647
H	-0.9515007	-2.5444321	5.1651857
C	-0.4542250	-0.1852667	2.6806554
C	-0.4984222	-0.7768657	1.4720253
H	-0.8592809	-1.7981019	1.3943503
O	-0.0024844	1.1091982	2.8643880
C	-1.0690523	2.0556155	2.7920581
H	-0.6365929	3.0558307	2.8888208
H	-1.7783494	1.9119307	3.6137711
H	-1.5918166	2.0026505	1.8315197
S	0.0000000	0.0000000	0.0000000
C	-0.1050118	-1.3946910	-1.1047444
C	-1.2531551	-1.5943424	-1.8775204
C	-1.3353092	-2.6855970	-2.7450034
H	-2.0891487	-0.9024750	-1.8104209
C	-0.2687980	-3.5780591	-2.8467121
H	-2.2299378	-2.8366674	-3.3436063
C	0.9648597	-2.2886754	-1.2167340
C	0.8816191	-3.3795038	-2.0843803
H	-0.3321570	-4.4259217	-3.5242103
H	1.7160069	-4.0711439	-2.1676521
H	1.8690856	-2.1401804	-0.6310408
C	4.0850842	-0.2644005	5.7018746
C	4.1599665	0.5043055	4.6080915
H	4.4057541	0.1105312	6.6678379
H	3.7034328	-1.2812602	5.6571284
H	4.5402054	1.5174231	4.6518277
C	3.7231400	-0.0065052	3.2911325
O	3.2756201	-1.1212262	3.0817666
O	3.9150684	0.9791828	2.3796498
C	3.5367273	0.6570931	1.0336245
C	4.6876650	-0.0205428	0.3138363
H	3.2956007	1.6013631	0.5344771
H	2.6306884	0.0405358	1.0103803
H	5.5837836	0.6079057	0.3446448
H	4.4299528	-0.2170375	-0.7306818
H	4.9473646	-0.9692532	0.7940779
