40
1.9127e-05 (energy)
C	-3.8990731	2.4525237	-1.2020896
H	-2.4490446	3.5802744	-2.1932534
C	-2.6306973	2.7439406	-1.5212642
H	-4.1606024	1.6613306	-0.5073911
H	-4.7162782	3.0294688	-1.6240905
C	-1.4445647	2.0784849	-1.0097973
C	-1.4022093	0.7761187	-0.6710083
H	-2.2860794	0.1618215	-0.8144947
O	-0.3644919	2.9283259	-0.8527006
C	0.4451296	2.9755721	-2.0277688
H	1.3054624	3.6173839	-1.8162983
H	-0.1056733	3.4125263	-2.8672015
H	0.8197833	1.9836112	-2.3004772
S	0.0000000	0.0000000	0.0000000
C	-0.7177471	-1.5811312	0.4018877
C	-0.5948400	-2.6547827	-0.4854921
C	-1.1549803	-3.8945519	-0.1703288
H	-0.0622975	-2.5338419	-1.4256197
C	-1.8354752	-4.0668730	1.0344581
H	-1.0569059	-4.7261529	-0.8633866
C	-1.3945814	-1.7619367	1.6124990
C	-1.9543293	-3.0019687	1.9265825
H	-2.2690177	-5.0329773	1.2805729
H	-2.4791810	-3.1370745	2.8688035
H	-1.4883484	-0.9397478	2.3181369
C	2.3914061	-4.7374085	2.7691636
C	2.6065077	-4.0290245	1.6534571
H	1.6942674	-5.5683472	2.7743175
H	2.9046704	-4.5041375	3.6985764
H	2.0954442	-4.2607148	0.7271551
C	3.5565752	-2.8961329	1.6460983
O	4.2038431	-2.5141515	2.6062263
O	3.5671027	-2.3719518	0.3953620
C	4.4467551	-1.2550728	0.2018143
C	3.7418595	0.0369527	0.5702373
H	4.7138932	-1.2385385	-0.8599295
H	5.3784811	-1.3783977	0.7659661
H	2.8148545	0.1459345	-0.0022224
H	4.3837558	0.8995407	0.3703506
H	3.4650442	0.0453341	1.6292134
