40
0.00189607 (energy)
C	-3.5246331	-3.1464363	0.5827207
H	-3.1619178	-3.3915496	-1.4581534
C	-2.9064315	-2.8284120	-0.5628188
H	-3.3557312	-2.6062065	1.5082551
H	-4.2444697	-3.9587834	0.6092142
C	-1.9492758	-1.7510849	-0.7487208
C	-1.0983428	-1.3304030	0.2060929
H	-1.0868514	-1.8366658	1.1666874
O	-2.0292096	-1.1563344	-1.9950550
C	-1.1606587	-1.7862168	-2.9370593
H	-1.2315797	-1.2345909	-3.8791281
H	-1.4686283	-2.8199639	-3.1254250
H	-0.1175933	-1.7599414	-2.6053275
S	0.0000000	0.0000000	0.0000000
C	0.6060579	0.1271520	1.6712800
C	1.8036003	-0.4969900	2.0340686
C	2.2802778	-0.3959613	3.3427643
H	2.3729066	-1.0639012	1.3015591
C	1.5645410	0.3329082	4.2918426
H	3.2116452	-0.8829726	3.6200418
C	-0.1036257	0.8635575	2.6254450
C	0.3738781	0.9638608	3.9337167
H	1.9374516	0.4135294	5.3098441
H	-0.1815159	1.5374930	4.6712713
H	-1.0304834	1.3643668	2.3555621
C	3.2495552	4.2985557	4.8909848
C	3.7079617	4.3008414	3.6329165
H	3.0011274	5.2269698	5.3937960
H	3.1127739	3.3731019	5.4446000
H	3.8446369	5.2224334	3.0807481
C	4.0469120	3.0354928	2.9472552
O	3.9485018	1.9223755	3.4351040
O	4.4825997	3.3433471	1.7004112
C	4.8541613	2.2243397	0.8828342
C	6.3043480	1.8533235	1.1303191
H	4.7263289	2.5335015	-0.1597653
H	4.1877955	1.3699628	1.0489255
H	6.9565474	2.7159967	0.9589823
H	6.6146331	1.0392812	0.4691823
H	6.4579773	1.5389616	2.1674797
