40
0.000229737 (energy)
C	-0.5598071	1.2394256	-4.5621380
H	-1.3990967	-0.6711887	-4.6063629
C	-0.8802733	0.0669429	-3.9980821
H	-0.0068513	2.0102158	-4.0357234
H	-0.8329629	1.4440127	-5.5928196
C	-0.5522596	-0.3505283	-2.6455050
C	-0.4548807	0.4948820	-1.6021794
H	-0.6648807	1.5495726	-1.7528563
O	-0.2957811	-1.7055241	-2.5374686
C	-1.4797406	-2.4443387	-2.2359768
H	-1.1969028	-3.4935688	-2.1097485
H	-2.2006153	-2.3840104	-3.0579623
H	-1.9430797	-2.1026595	-1.3046906
S	0.0000000	0.0000000	0.0000000
C	0.1447968	1.6052636	0.7607979
C	-0.9254936	2.1387509	1.4854677
C	-0.8120401	3.3954509	2.0837538
H	-1.8524577	1.5802707	1.5898969
C	0.3726774	4.1209711	1.9639852
H	-1.6468067	3.8060206	2.6459862
C	1.3335455	2.3340415	0.6506440
C	1.4458726	3.5905272	1.2492022
H	0.4614610	5.0980865	2.4322288
H	2.3719952	4.1526209	1.1605974
H	2.1787857	1.9274096	0.1002521
C	-0.0616681	-1.8417310	4.4099936
C	0.6831352	-1.7949719	3.2982566
H	-1.1268843	-1.6404063	4.3743438
H	0.3741183	-2.0811042	5.3766654
H	0.2497410	-1.5564297	2.3348413
C	2.1352481	-2.0691390	3.3464920
O	2.7655633	-2.3494087	4.3519087
O	2.6221665	-1.9478954	2.0865600
C	4.0295864	-2.1872914	1.9432895
C	4.8071073	-0.9101418	2.2007644
H	4.1946569	-2.5169264	0.9122569
H	4.3649524	-2.9997701	2.5982686
H	4.4616790	-0.1095670	1.5384317
H	5.8768004	-1.0675272	2.0363554
H	4.6591291	-0.5602608	3.2273184
