40
0.00687739 (energy)
C	2.4362449	-1.4628534	-4.2454101
C	2.3829391	-0.7591251	-3.1075162
H	3.1615185	-1.2213526	-5.0149188
H	1.7593845	-2.2924957	-4.4330729
H	3.0568361	0.0676473	-2.9198674
C	1.3942830	-1.0878940	-2.0584233
O	0.5715604	-1.9854766	-2.1231084
O	1.5710383	-0.2164800	-1.0344051
C	0.6909737	-0.3930920	0.0849528
C	-0.6005298	0.3711689	-0.1383567
H	1.2074238	0.0062325	0.9640178
H	0.5000503	-1.4549390	0.2789085
H	-0.3931007	1.4292413	-0.3290956
H	-1.2543027	0.2913373	0.7347135
H	-1.1369712	-0.0108381	-1.0126728
C	10.6934371	-0.0030748	-1.9735148
H	12.2178812	-0.1642433	-0.5568622
C	11.1688422	0.0722933	-0.7229618
H	9.6710355	0.2562045	-2.2274033
H	11.3415078	-0.3120298	-2.7879629
C	10.4261974	0.4981477	0.4511195
C	9.1058431	0.2945915	0.6183281
H	8.5526796	-0.2491775	-0.1416070
O	11.1997729	1.1855356	1.3690222
C	11.7795210	0.3069691	2.3336556
H	12.3280542	0.9180749	3.0564803
H	12.4898630	-0.3803015	1.8624516
H	11.0148960	-0.2578765	2.8768130
S	8.2100148	0.8617680	1.9947749
C	6.5632937	0.4567762	1.4461932
C	5.9634734	-0.7409567	1.8473517
C	4.6724216	-1.0579598	1.4197924
H	6.4956697	-1.4333140	2.4950218
C	3.9747856	-0.1771776	0.5940768
H	4.2103815	-1.9902561	1.7341978
C	5.8557677	1.3401361	0.6243312
C	4.5649488	1.0221361	0.1973558
H	2.9686863	-0.4231654	0.2637086
H	4.0194989	1.7122557	-0.4411757
H	6.3043173	2.2808311	0.3135128
