40
0.00706044 (energy)
C	0.0492934	-4.9972541	1.0600744
C	0.2679204	-3.7227254	1.4074306
H	0.4983870	-5.8107677	1.6195373
H	-0.5805175	-5.2555611	0.2125608
H	0.8953675	-3.4645655	2.2515666
C	-0.3439154	-2.6135135	0.6449138
O	-1.0697542	-2.7432861	-0.3261827
O	0.0513314	-1.4493177	1.2173176
C	-0.4572367	-0.2562024	0.6037201
C	0.4491459	0.1750283	-0.5340207
H	-0.4721423	0.5194841	1.3763935
H	-1.4905750	-0.3914727	0.2638619
H	1.4762754	0.3071636	-0.1783937
H	0.1027750	1.1161122	-0.9704059
H	0.4800026	-0.5847610	-1.3213551
C	1.0737843	2.8717465	-6.2480909
H	2.3399982	2.5745036	-7.8806223
C	2.2743804	2.6406658	-6.7964921
H	0.9321269	2.9919338	-5.1792231
H	0.1941035	2.9688680	-6.8769818
C	3.5334653	2.5201228	-6.0812894
C	3.6442562	2.0193320	-4.8364346
H	2.7569551	1.6455498	-4.3342798
O	4.6136385	3.0206870	-6.7856528
C	5.2330317	2.0145333	-7.5872208
H	6.1071283	2.4616298	-8.0697915
H	4.5544804	1.6643807	-8.3720274
H	5.5744445	1.1687858	-6.9815225
S	5.1427348	1.9361349	-3.9609670
C	4.5157720	1.4099901	-2.3776983
C	4.5153504	0.0537350	-2.0373332
C	4.0263693	-0.3590905	-0.7961300
H	4.8959796	-0.6889099	-2.7342321
C	3.5407570	0.5821845	0.1107666
H	4.0280064	-1.4145042	-0.5361159
C	4.0347800	2.3505028	-1.4609337
C	3.5460247	1.9366133	-0.2201843
H	3.1627107	0.2605585	1.0779929
H	3.1735009	2.6716984	0.4886029
H	4.0394492	3.4099364	-1.7064748
