40
-0.0011512 (energy)
C	2.3424952	-5.5698205	1.4872236
H	1.4592761	-7.0077970	0.2588274
C	1.3968656	-5.9887655	0.6352595
H	2.3281004	-4.5832604	1.9383134
H	3.1551004	-6.2312634	1.7717242
C	0.2423153	-5.2246069	0.1943336
C	0.2396446	-3.8861576	0.0484712
H	1.1545744	-3.3308692	0.2321393
O	-0.8821419	-6.0026300	-0.0148136
C	-0.9590469	-6.4674493	-1.3626018
H	-1.8939384	-7.0249833	-1.4719100
H	-0.1308216	-7.1458988	-1.5921864
H	-0.9728430	-5.6371963	-2.0761923
S	-1.1613901	-2.9703221	-0.4175227
C	-0.5141091	-1.3261216	-0.1845365
C	0.0157302	-0.6192026	-1.2684242
C	0.5210212	0.6699563	-1.0871427
H	0.0375722	-1.0659466	-2.2593888
C	0.4941597	1.2587158	0.1765504
H	0.9319741	1.2154833	-1.9327349
C	-0.5457077	-0.7275201	1.0792090
C	-0.0401432	0.5615100	1.2593514
H	0.8851643	2.2633971	0.3166215
H	-0.0672566	1.0220631	2.2435561
H	-0.9653003	-1.2600701	1.9295291
C	4.5439445	3.9953420	-0.1297467
C	4.5597326	5.3342208	-0.1240846
H	5.4679004	3.4286857	-0.1709060
H	3.6116089	3.4375714	-0.0936088
H	5.4881722	5.8906350	-0.1602076
C	3.3004416	6.1070010	-0.0681996
O	2.1808392	5.6260230	-0.0250529
O	3.6217125	7.4245392	-0.0780045
C	2.5108324	8.3309411	-0.0227889
C	1.9894133	8.6063370	-1.4207239
H	2.8788064	9.2611510	0.4224535
H	1.7186023	7.9518331	0.6331366
H	2.7915124	8.9853617	-2.0625204
H	1.1804588	9.3418461	-1.3949805
H	1.6140103	7.6902404	-1.8875932
