24
0.00352205 (energy)
C	1.7284097	1.5602472	0.3444290
N	1.3109218	2.5250660	0.6883934
H	0.3378641	2.6304500	0.7947153
H	1.9123855	3.2784313	0.8882215
N	3.1004566	1.4533026	0.2080229
H	3.6743700	2.2652183	0.4118967
C	2.9670291	-0.8142046	-0.4725431
C	3.7074246	0.2766736	-0.1963005
H	4.7894195	0.3036834	-0.2699586
H	3.3734318	-1.7630692	-0.7923105
C	0.5741123	-1.6031537	-0.5317423
N	1.5820846	-0.6989389	-0.3326145
H	0.7561030	-2.6165509	-0.8541845
C	-0.5884585	-0.9210153	-0.2359938
N	-0.3308158	0.3778155	0.1401095
C	0.9744949	0.4801339	0.0724969
C	4.3801554	2.9403405	4.3066282
H	3.8525517	2.0410873	4.6374146
H	5.4511492	2.7920773	4.4657919
H	4.1656781	3.1005350	3.2471470
C	3.9049856	4.1162491	5.1046918
O	3.0444825	4.0606506	5.9680902
O	4.5312483	5.2652634	4.7670801
H	5.1943735	5.1556749	4.0597239
