24
0.00395922 (energy)
C	-0.3562122	-1.3438355	1.8993740
N	-0.9484680	-0.7924108	2.6534607
H	-1.2327372	0.1331902	2.4754012
H	-1.1913444	-1.2272057	3.5027036
N	0.0233185	-2.6419781	2.1880587
H	-0.2396056	-3.0376662	3.0849701
C	1.1076819	-2.9074544	0.0961122
C	0.7471080	-3.4104540	1.2925606
H	0.9916001	-4.4150198	1.6211015
H	1.6715700	-3.4496900	-0.6493870
C	0.9259031	-0.8111791	-1.2911811
N	0.7209709	-1.5958534	-0.1886596
H	1.4680921	-1.1551954	-2.1582147
C	0.3131519	0.3904916	-0.9998489
N	-0.2647867	0.3735340	0.2493485
C	-0.0041663	-0.8263768	0.7088785
C	-1.9088360	-5.2231440	5.2758882
H	-1.9571605	-4.8027486	6.2845379
H	-2.3725494	-4.5163445	4.5832504
H	-0.8600350	-5.3866995	5.0162168
C	-2.6489669	-6.5257258	5.2452366
O	-3.1930228	-7.0320627	6.2130381
O	-2.6527990	-7.0966976	4.0203296
H	-2.1766555	-6.5771481	3.3454569
