24
0.00453429 (energy)
C	0.3785904	2.3129260	0.2178187
N	1.4640897	2.5214646	0.2588774
H	2.1098179	1.7794851	0.2170091
H	1.7845261	3.4490535	0.3372904
N	-0.4952940	3.3830076	0.2795289
H	-0.1131041	4.3182866	0.3761324
C	-2.3985811	1.9821765	0.0852813
C	-1.8676089	3.2134925	0.2135003
H	-2.4595659	4.1207444	0.2713696
H	-3.4579923	1.7770000	0.0277599
C	-1.7259122	-0.4394081	-0.1029757
N	-1.5100926	0.9062029	0.0235846
H	-2.7139865	-0.8663024	-0.1773675
C	-0.4691397	-1.0093748	-0.1063768
N	0.5179708	-0.0576056	0.0142174
C	-0.1352921	1.0765961	0.0897863
C	3.4283270	2.8107875	3.6897729
H	2.5936134	2.4104990	3.1071375
H	3.9441394	3.5614013	3.0857371
H	3.0321628	3.2572992	4.6051113
C	4.3716487	1.6985393	4.0340128
O	4.2027325	0.5307092	3.7231208
O	5.4452508	2.1217777	4.7373393
H	5.4439286	3.0816402	4.9127237
