24
0.00418206 (energy)
C	-1.6464416	0.7590997	1.5011330
N	-2.3958009	1.3745796	0.9690351
H	-2.3002437	1.5407334	0.0033679
H	-3.1583341	1.7562419	1.4610982
N	-1.8169768	0.5494649	2.8574248
H	-2.6118634	0.9788965	3.3199094
C	0.1235940	-0.8052209	3.0043022
C	-0.9385637	-0.2249941	3.5956300
H	-1.1670913	-0.3230952	4.6515748
H	0.8477616	-1.4209829	3.5182835
C	1.2449073	-1.0284653	0.7582357
N	0.2895443	-0.5892063	1.6343622
H	2.0662490	-1.6594532	1.0604206
C	0.8897931	-0.4937583	-0.4633752
N	-0.2562132	0.2630532	-0.3700975
C	-0.5908122	0.1867956	0.8952503
C	-3.7523754	5.3131871	-0.3955693
H	-3.3239729	5.6128431	-1.3563602
H	-3.2967135	4.3670809	-0.0929173
H	-3.5429249	6.0950442	0.3385922
C	-5.2333045	5.1400554	-0.5449921
O	-5.8484881	5.3324534	-1.5811127
O	-5.8322942	4.7459548	0.6005717
H	-5.2134817	4.6338082	1.3466225
