24
0.0036633 (energy)
C	1.7304718	-1.2871776	-0.9428911
N	2.1861999	-1.9387200	-0.1739390
H	1.8587118	-1.9083133	0.7540041
H	2.9193129	-2.5490399	-0.4174632
N	2.2192471	-1.3601517	-2.2345296
H	2.9870944	-1.9947707	-2.4289965
C	0.6735872	0.2532792	-3.0284679
C	1.6927444	-0.5960621	-3.2618102
H	2.1514235	-0.7321255	-4.2354468
H	0.2151481	0.8784429	-3.7813040
C	-0.8204120	1.0684104	-1.1695640
N	0.1850232	0.3217698	-1.7217347
H	-1.4127401	1.7633531	-1.7442513
C	-0.8455316	0.7131180	0.1636604
N	0.1136753	-0.2306453	0.4535361
C	0.7128813	-0.4439728	-0.6929019
C	4.8574405	-5.3681502	-3.6724554
H	4.2984572	-6.2820806	-3.8931602
H	5.3825612	-5.0557324	-4.5785383
H	4.1527897	-4.5979047	-3.3494194
C	5.8460194	-5.6426713	-2.5803003
O	5.9738025	-6.7197879	-2.0212788
O	6.5935206	-4.5612000	-2.2671195
H	6.3781451	-3.7705474	-2.7968170
