19
-0.00181488 (energy)
C	-1.8792695	-1.6759671	1.9530529
H	-2.0591275	-1.9216702	2.9972380
C	-2.7103357	-2.2266165	0.9787984
H	-3.5218443	-2.8894364	1.2662919
C	-2.4975537	-1.9232058	-0.3606372
H	-3.1417826	-2.3472529	-1.1256646
C	-1.4540174	-1.0695678	-0.7223106
H	-1.3050625	-0.8420185	-1.7744527
C	-0.6069375	-0.5101262	0.2430682
N	0.4049312	0.3452691	-0.1623740
H	1.0460526	0.7459925	0.5057591
H	0.5543945	0.5307046	-1.1438492
C	0.0451247	-0.2439705	2.6833840
H	-0.2668626	-0.5885608	3.6750717
H	-0.0132448	0.8492051	2.6810497
H	1.0847372	-0.5554201	2.5389350
C	-0.8253191	-0.8154776	1.5985098
Br	3.9196591	0.2160505	-0.1707317
H	4.7043514	0.4801620	1.0207438
