31
-0.00190589 (energy)
C	-1.6627758	-1.5968326	0.3173718
O	-2.5538918	-2.2833955	-0.1879857
O	-1.3935444	-1.6172221	1.6697225
H	-2.0336079	-2.2003267	2.1329503
N	-0.4805004	0.6043372	0.1757655
C	-2.7799714	1.3118519	-0.1018905
H	-3.0969089	0.4059929	-0.6024598
H	-3.5350248	2.0753944	0.0344000
C	-1.1471680	2.8147638	1.0422245
H	-0.3913837	3.3798957	0.4813215
H	-2.0297314	3.4489596	1.1467434
H	-0.7417135	2.6297400	2.0448816
C	1.6944963	-0.1871914	-0.2143174
C	0.8840614	0.7347961	0.7115552
C	-0.7004397	-0.6972522	-0.4502801
C	0.7199635	-1.3499022	-0.5084915
H	1.9450288	0.3455196	-1.1387615
H	2.6258226	-0.5328653	0.2443613
H	1.2268282	1.7709847	0.6657993
H	0.9467714	0.3975751	1.7584728
H	-1.1367159	-0.5770331	-1.4493132
H	0.8093963	-2.1180017	0.2666160
H	0.8997506	-1.8252541	-1.4759809
C	-1.5180965	1.5256036	0.3420197
C	3.3748368	-4.2086237	-1.8474314
H	4.4342009	-4.3091979	-1.5437616
O	2.7698655	-3.1498954	-1.6446603
C	2.7711678	-5.4217663	-2.4977751
H	2.8298424	-6.2828159	-1.8186597
H	1.7286770	-5.2341993	-2.7634972
H	3.3392982	-5.6893726	-3.3985681
