31
-0.00201322 (energy)
C	0.1001328	1.5921900	-1.6942040
O	0.7535909	2.0919428	-2.6129434
O	-1.1410621	2.0687395	-1.3280214
H	-1.3707185	2.8595336	-1.8629745
N	0.2762162	0.4984064	0.5498121
C	1.8614722	2.3108840	0.8088970
H	2.1589894	2.3245862	-0.2317255
H	2.3542459	3.0220045	1.4594043
C	0.5591519	1.5077899	2.7819131
H	0.8051123	0.5673990	3.2921724
H	1.1032241	2.3117489	3.2815950
H	-0.5143390	1.6864461	2.9220826
C	-0.7282830	-1.5560974	0.0213344
C	-0.8034475	-0.3863330	1.0163757
C	0.5101320	0.3659429	-0.8862166
C	-0.3460111	-0.8724491	-1.3108226
H	0.0565491	-2.2552098	0.3318577
H	-1.6696058	-2.1091103	-0.0516953
H	-0.6306777	-0.7079827	2.0459201
H	-1.7866658	0.1085446	0.9709336
H	1.5768896	0.2158049	-1.0919920
H	-1.2490178	-0.5400184	-1.8331592
H	0.2106375	-1.5284206	-1.9847382
C	0.9325944	1.4653168	1.3161213
C	2.9047060	-0.7284616	-3.5974357
H	1.8876517	-1.1562136	-3.5125148
O	3.4784201	-0.2901283	-2.5940772
C	3.4932608	-0.7309236	-4.9804307
H	2.8488137	-0.1646332	-5.6660327
H	4.4935932	-0.2929483	-4.9709675
H	3.5433149	-1.7572618	-5.3676487
