24
0.00408486 (energy)
C	-0.2961344	-1.1453665	-2.0349060
N	-0.0237225	-0.4926339	-2.8853265
H	0.2777967	0.4300134	-2.7208288
H	-0.0827768	-0.8343050	-3.8067507
N	-0.7148096	-2.4346985	-2.3085674
H	-0.7730376	-2.7320027	-3.2772613
C	-0.9849335	-2.9528433	-0.0104985
C	-1.0541274	-3.3241175	-1.3035099
H	-1.3691035	-4.3094267	-1.6303490
H	-1.2340998	-3.5938596	0.8230317
C	-0.3878342	-0.9797660	1.4394790
N	-0.5613129	-1.6493263	0.2584377
H	-0.5797163	-1.4330716	2.3995617
C	0.0476339	0.2798289	1.0815140
N	0.1489799	0.4103246	-0.2850492
C	-0.2214818	-0.7586460	-0.7488837
C	4.8979704	-0.9277423	0.3202754
H	5.7090041	-1.4053058	0.8775894
H	5.2996344	-0.5555054	-0.6254775
H	4.1141339	-1.6680697	0.1422898
C	4.3478971	0.2116185	1.1232257
O	4.7423794	0.5251108	2.2345852
O	3.3527142	0.8679785	0.4866544
H	3.1449047	0.5033025	-0.3942112
