40
-0.00168201 (energy)
C	1.9154956	4.2053309	-4.1675036
H	1.2834912	3.5950044	-6.0608820
C	1.4475950	3.2916958	-5.0288475
H	2.1438884	3.9712674	-3.1330757
H	2.1033615	5.2226824	-4.4968620
C	1.1817911	1.8939614	-4.7338440
C	0.7727556	1.4454225	-3.5320819
H	0.5910299	2.1586034	-2.7336304
O	1.4402046	1.0504986	-5.7993296
C	0.2845031	0.8632301	-6.6165132
H	0.5420639	0.1465749	-7.4019319
H	-0.0129378	1.8009261	-7.0973614
H	-0.5534310	0.4531134	-6.0434579
S	0.5176455	-0.2337689	-3.1659691
C	0.2317050	-0.0999118	-1.4118395
C	-1.0739778	-0.0375545	-0.9152707
C	-1.2989016	0.0650642	0.4591351
H	-1.9230840	-0.0695635	-1.5935496
C	-0.2202485	0.1008533	1.3420315
H	-2.3156771	0.1133449	0.8403763
C	1.3096583	-0.0715909	-0.5210032
C	1.0836146	0.0311020	0.8530434
H	-0.3959403	0.1780041	2.4121106
H	1.9249333	0.0525888	1.5409564
H	2.3305360	-0.1310434	-0.8911195
C	5.2893390	0.5054570	-0.1765392
C	5.9381749	-0.6445144	0.0458470
H	5.3489577	1.0000286	-1.1400394
H	4.6866138	0.9767363	0.5956536
H	6.5389639	-1.1145887	-0.7229082
C	5.8573163	-1.3188717	1.3591748
O	5.2251630	-0.9145456	2.3202231
O	6.6077571	-2.4465659	1.2931264
C	6.6404222	-3.2369687	2.4901494
C	7.7395944	-2.7449236	3.4130012
H	6.8489049	-4.2682401	2.1869167
H	5.6663750	-3.2402791	2.9929522
H	8.7053357	-2.7489591	2.8970044
H	7.8116679	-3.3776760	4.3020870
H	7.5530949	-1.7144878	3.7316659
