40
-0.00236033 (energy)
C	-0.1107902	2.1154318	5.8510419
H	-1.3525848	3.7915436	5.9245597
C	-0.7926418	3.1174399	5.2795253
H	0.5040631	1.4265393	5.2815047
H	-0.1395313	1.9776813	6.9275982
C	-0.8189357	3.4360735	3.8620905
C	-0.7143792	2.5164451	2.8842965
H	-0.6409567	1.4660748	3.1498285
O	-0.9106884	4.7925686	3.6072002
C	-2.2690842	5.2180852	3.4967413
H	-2.2672533	6.2817329	3.2408806
H	-2.7967785	5.0992571	4.4487804
H	-2.7983297	4.6786839	2.7044868
S	-0.6822241	2.9085685	1.1919583
C	-0.3037727	1.2953124	0.5355822
C	-1.3311004	0.4628212	0.0807934
C	-1.0352122	-0.8004265	-0.4357027
H	-2.3664187	0.7918914	0.1243469
C	0.2882914	-1.2339775	-0.5039016
H	-1.8372329	-1.4440265	-0.7879101
C	1.0226269	0.8583582	0.4574164
C	1.3173398	-0.4049566	-0.0591351
H	0.5183495	-2.2164159	-0.9085956
H	2.3498705	-0.7395481	-0.1177193
H	1.8334608	1.4990292	0.7962393
C	6.4089070	-0.2901811	0.9095757
C	7.0067706	-0.6963317	-0.2175793
H	6.9884133	0.1204762	1.7293446
H	5.3316726	-0.3585470	1.0382448
H	8.0799480	-0.6286772	-0.3464783
C	6.2171744	-1.2563669	-1.3351769
O	5.0060541	-1.3973477	-1.3399873
O	7.0793840	-1.5799939	-2.3307060
C	6.4801334	-2.1384798	-3.5086958
C	6.3315877	-3.6409569	-3.3588959
H	7.1513691	-1.9167512	-4.3448866
H	5.5191425	-1.6609314	-3.7323780
H	7.2993464	-4.1028054	-3.1373913
H	5.9301695	-4.0841669	-4.2745771
H	5.6629228	-3.8888028	-2.5284822
