40
-0.0024461 (energy)
C	-1.9232483	5.8887858	0.5876525
H	-2.2112641	6.2908784	2.6155032
C	-2.0827594	5.5142179	1.8642998
H	-1.8304229	5.1751962	-0.2242363
H	-1.9045108	6.9419015	0.3242693
C	-2.1572355	4.1477589	2.3527496
C	-1.5032646	3.1135367	1.7911126
H	-0.8488441	3.2969072	0.9441859
O	-3.0125490	3.9967445	3.4293647
C	-2.3306928	4.1640366	4.6725823
H	-3.0488484	3.9771154	5.4764030
H	-1.9583138	5.1879238	4.7818923
H	-1.5064820	3.4514646	4.7804691
S	-1.6456006	1.4710790	2.3396347
C	-0.7333250	0.6597874	1.0410933
C	0.6191165	0.3521619	1.2187025
C	1.3340202	-0.2855080	0.2026304
H	1.1239128	0.6052764	2.1477784
C	0.6988100	-0.6221433	-0.9921349
H	2.3852020	-0.5224983	0.3453208
C	-1.3673275	0.3126350	-0.1563626
C	-0.6515347	-0.3248772	-1.1716775
H	1.2551098	-1.1210078	-1.7817891
H	-1.1491408	-0.5925594	-2.1002450
H	-2.4215379	0.5346955	-0.3048260
C	6.6390788	-0.9332830	-2.9941909
C	6.9778208	-1.7518952	-1.9901961
H	7.2206266	-0.9057986	-3.9093601
H	5.7768854	-0.2749028	-2.9247515
H	7.8367346	-2.4080169	-2.0585575
C	6.1854537	-1.7894860	-0.7424512
O	5.1968166	-1.1127484	-0.5158809
O	6.7585564	-2.6979792	0.0854447
C	6.1113980	-2.8710368	1.3542649
C	6.6382187	-1.8581805	2.3535274
H	6.3468683	-3.8836350	1.6979717
H	5.0212029	-2.8095025	1.2579438
H	7.7272209	-1.9332940	2.4393027
H	6.1943803	-2.0195887	3.3399343
H	6.4138098	-0.8361015	2.0324006
