40
-0.00185552 (energy)
C	-0.0728509	4.8184869	-3.9368635
H	-1.5014478	4.4451817	-5.4121817
C	-0.8974590	4.0111712	-4.6179187
H	0.5911070	4.4555754	-3.1594028
H	-0.0313594	5.8787890	-4.1666732
C	-1.0321387	2.5756412	-4.4377654
C	-0.8667771	1.9487836	-3.2577507
H	-0.6548533	2.5369948	-2.3699040
O	-1.2984117	1.8985313	-5.6142378
C	-2.7018234	1.7728695	-5.8447788
H	-2.8402418	1.1828629	-6.7555736
H	-3.1635193	2.7531580	-6.0023585
H	-3.2012749	1.2507224	-5.0222021
S	-0.9659680	0.2254852	-3.0597431
C	-0.4299007	0.1048828	-1.3642380
C	-1.3713200	0.0396092	-0.3323729
C	-0.9521336	-0.0571639	0.9961716
H	-2.4351731	0.0624230	-0.5554519
C	0.4087702	-0.0938767	1.2976222
H	-1.6877028	-0.1075239	1.7948642
C	0.9337876	0.0596612	-1.0565301
C	1.3518140	-0.0370399	0.2722093
H	0.7345694	-0.1719647	2.3318592
H	2.4128184	-0.0719367	0.5057795
H	1.6777819	0.0976285	-1.8488323
C	4.1362730	-3.0092188	0.6892880
C	5.1360573	-2.4169607	0.0240517
H	3.7353621	-3.9611237	0.3581753
H	3.6976125	-2.5583573	1.5758344
H	5.5735182	-2.8654359	-0.8593507
C	5.6826765	-1.1192718	0.4749807
O	5.2960952	-0.4921376	1.4465612
O	6.6720656	-0.7656498	-0.3825032
C	7.3252277	0.4783314	-0.0917151
C	6.5706276	1.6284240	-0.7318784
H	8.3326246	0.4176136	-0.5164512
H	7.4399780	0.6259485	0.9883919
H	6.4657486	1.4668562	-1.8097566
H	7.0927072	2.5749555	-0.5658823
H	5.5589129	1.7109088	-0.3222967
