40
-0.00112855 (energy)
C	-6.0517570	1.0845656	0.9601940
H	-7.0819519	-0.7230707	0.7929835
C	-6.1511085	-0.1985594	0.5869744
H	-5.1736690	1.6875022	0.7542354
H	-6.8766115	1.5715836	1.4712742
C	-5.1429098	-0.9629076	-0.1276216
C	-3.8177058	-0.7662152	0.0060789
H	-3.4605966	-0.0213528	0.7109399
O	-5.6775042	-1.8873652	-1.0068563
C	-5.8729302	-3.1568961	-0.3834749
H	-6.2423868	-3.8505325	-1.1445170
H	-6.6241198	-3.0932906	0.4106462
H	-4.9365661	-3.5587926	0.0170538
S	-2.6178413	-1.6390848	-0.8979273
C	-1.1698054	-0.7280155	-0.3981319
C	-0.3745412	-1.1938501	0.6534524
C	0.7614236	-0.4817873	1.0441738
H	-0.6327977	-2.1129245	1.1737158
C	1.1090905	0.6952760	0.3824117
H	1.3764407	-0.8478379	1.8622624
C	-0.8118313	0.4490584	-1.0635089
C	0.3241697	1.1602813	-0.6719615
H	1.9950524	1.2478062	0.6851838
H	0.5978971	2.0743829	-1.1925331
H	-1.4137096	0.8177914	-1.8908481
C	4.7955372	2.8542522	0.1842794
C	4.9880501	2.1140989	-0.9148064
H	4.7100867	3.9336094	0.1196707
H	4.7193514	2.4005205	1.1691586
H	5.0641968	2.5654037	-1.8963498
C	5.1047925	0.6427709	-0.8271071
O	5.0415915	-0.0081756	0.2019630
O	5.2955421	0.1664180	-2.0824639
C	5.4260484	-1.2584995	-2.1885109
C	6.8716020	-1.6691704	-1.9795436
H	5.1076316	-1.5345406	-3.1991286
H	4.7577621	-1.7736747	-1.4888127
H	7.5254701	-1.1475993	-2.6861873
H	6.9921332	-2.7474475	-2.1167824
H	7.2138166	-1.4044977	-0.9740761
