40
-0.00153078 (energy)
C	-5.7852148	1.8499134	1.3531915
H	-5.8996390	2.2146454	3.4051875
C	-5.3264558	1.7458125	2.6078932
H	-5.2942668	1.3764070	0.5095377
H	-6.6945522	2.4061431	1.1470637
C	-4.1463552	1.0104878	3.0297941
C	-3.0462298	0.8569179	2.2689592
H	-3.0052151	1.3328390	1.2937706
O	-4.2788308	0.4325229	4.2795434
C	-3.8273371	1.3054614	5.3152250
H	-3.9071702	0.7681341	6.2648147
H	-4.4563729	2.1995423	5.3776198
H	-2.7802515	1.5924494	5.1739044
S	-1.6628982	-0.0766944	2.7522451
C	-0.7448123	-0.0320850	1.2252287
C	0.2607557	0.9212151	1.0372697
C	0.9820658	0.9553891	-0.1579946
H	0.4896789	1.6414228	1.8189110
C	0.7042979	0.0342558	-1.1672705
H	1.7627451	1.6983736	-0.2994937
C	-1.0137319	-0.9586232	0.2125175
C	-0.2919413	-0.9235032	-0.9822336
H	1.2679690	0.0595407	-2.0965307
H	-0.5049013	-1.6459615	-1.7659462
H	-1.7847281	-1.7134718	0.3484600
C	5.3664375	-2.7693665	-4.3720142
C	5.9928267	-2.0074954	-3.4664388
H	5.9293900	-3.3809801	-5.0687935
H	4.2817716	-2.7990625	-4.4374477
H	7.0734133	-1.9772610	-3.4007099
C	5.2257838	-1.1734808	-2.5166015
O	4.0096750	-1.1001538	-2.4674742
O	6.1143651	-0.5167883	-1.7302196
C	5.5402272	0.3440133	-0.7362106
C	5.2779315	1.7187675	-1.3220393
H	6.2687752	0.4237086	0.0773017
H	4.6286523	-0.0907785	-0.3100921
H	6.1974748	2.1396492	-1.7418297
H	4.8951386	2.3998314	-0.5567516
H	4.5504001	1.6657999	-2.1381398
