19
-0.00168526 (energy)
C	-1.4571541	1.2680461	-0.4653050
H	-1.1224384	1.5055419	-1.4725798
C	-2.6173091	1.8705788	0.0184843
H	-3.1719233	2.5648761	-0.6067223
C	-3.0619942	1.5784927	1.3023702
H	-3.9659880	2.0429127	1.6860666
C	-2.3451599	0.6842555	2.0992152
H	-2.7100642	0.4664108	3.0993941
C	-1.1753378	0.0723538	1.6306342
N	-0.5068533	-0.8215357	2.4516414
H	0.3507228	-1.2610288	2.1525983
H	-0.8366732	-0.9984237	3.3896971
C	0.5170263	-0.2604602	-0.2338507
H	0.7151341	0.0825846	-1.2549269
H	0.4127068	-1.3497189	-0.2666877
H	1.3856825	0.0059017	0.3770080
C	-0.7281256	0.3663853	0.3299810
Br	4.3076273	-0.1582406	-0.2722051
H	4.4474540	1.2727081	-0.0774101
