19
-0.00160631 (energy)
C	-0.3583899	-1.9492886	0.1399232
H	0.2466634	-2.1418676	1.0230230
C	-1.0454446	-3.0090378	-0.4499452
H	-0.9721837	-4.0077247	-0.0282979
C	-1.8251197	-2.7825937	-1.5778866
H	-2.3646902	-3.6030274	-2.0425004
C	-1.9157767	-1.4965540	-2.1130098
H	-2.5324999	-1.3387043	-2.9937511
C	-1.2293274	-0.4206220	-1.5354000
N	-1.3633849	0.8412650	-2.0918464
H	-0.8640054	1.6321832	-1.7135788
H	-1.9163927	0.9754828	-2.9262247
C	0.3144110	0.4622573	0.2780390
H	0.8723381	0.1034345	1.1495242
H	-0.3766251	1.2370064	0.6254271
H	1.0371725	0.9013510	-0.4172833
C	-0.4431510	-0.6505352	-0.3920633
Br	3.9015509	1.5794743	-0.9770695
H	4.4878220	1.9676048	0.2920845
