19
-0.00161854 (energy)
C	0.2310683	1.1401556	-1.6107142
H	0.7169199	0.3987157	-2.2409970
C	0.0005044	2.4148033	-2.1256619
H	0.3043891	2.6554050	-3.1406958
C	-0.6205931	3.3753155	-1.3363102
H	-0.8050265	4.3705004	-1.7309049
C	-1.0097061	3.0584373	-0.0337539
H	-1.4963850	3.8219548	0.5672070
C	-0.7826536	1.7837811	0.5011986
N	-1.2018302	1.5105987	1.7933383
H	-1.0324417	0.6100246	2.2155843
H	-1.6288877	2.2329905	2.3552912
C	0.1110921	-0.5761973	0.2133003
H	0.6048481	-1.1975117	-0.5414821
H	-0.8282182	-1.0695675	0.4829805
H	0.7682585	-0.5367923	1.0880803
C	-0.1568548	0.8116817	-0.2997699
Br	3.4587673	-1.4484607	2.0489713
H	3.3255784	-0.3752247	3.0162024
