29
-0.00260854 (energy)
C	-0.1628828	-2.5651771	-0.5667357
C	0.1169313	-1.4752719	-1.2924686
H	-0.1737647	-3.5491370	-1.0230170
H	-0.3864933	-2.4992848	0.4950177
H	0.3396736	-1.5400778	-2.3503381
C	0.1316517	-0.1338004	-0.6708872
O	-0.0987702	0.1003822	0.5033255
O	0.4397821	0.7672372	-1.6364983
C	0.5041154	2.1346177	-1.2066153
C	-0.8725760	2.7691296	-1.2703219
H	1.1807582	2.6542127	-1.8929909
H	0.9377574	2.2175910	-0.2032909
H	-1.2910388	2.6793618	-2.2781691
H	-0.8243882	3.8280024	-1.0010449
H	-1.5684170	2.2670803	-0.5907050
C	3.9010437	4.3573917	4.3418939
H	3.9122965	5.0439873	5.1831277
H	3.9148527	3.2989346	4.5743667
H	3.8592857	5.9083221	2.9447400
C	3.8715038	4.8285645	3.0901605
C	3.8533015	4.0534609	1.8705711
C	3.8625106	2.7205863	1.7617980
H	3.8295805	4.6390582	0.9526056
H	3.8855399	2.0516547	2.6107428
O	3.8427861	2.1075288	0.5356662
C	3.8569767	0.6863734	0.6342648
H	3.8398563	0.2750717	-0.3791505
H	2.9709859	0.3248000	1.1673133
H	4.7699965	0.3402207	1.1306626
