29
-0.00233136 (energy)
C	0.3963093	2.5664307	2.4225926
C	-0.0603607	1.5363141	1.6992739
H	-0.1594657	2.9346079	3.2781905
H	1.3316478	3.0630579	2.1773030
H	-0.9921876	1.0411027	1.9429257
C	0.6968571	1.0342918	0.5327746
O	1.7568538	1.4862783	0.1342444
O	0.0000000	0.0000000	0.0000000
C	0.5960179	-0.6186299	-1.1492290
C	0.1788647	0.1109922	-2.4123910
H	0.2307295	-1.6503186	-1.1826762
H	1.6871405	-0.6666828	-1.0557839
H	-0.9125448	0.1491470	-2.4917302
H	0.5800939	-0.3880702	-3.2989549
H	0.5339087	1.1463628	-2.4035121
C	7.7940079	0.3434949	-0.3356447
H	8.4985336	1.1674783	-0.3981686
H	8.2077700	-0.6575138	-0.3723650
H	6.1515676	1.6242413	-0.1898833
C	6.4836927	0.5869386	-0.2193586
C	5.4236338	-0.3907832	-0.1252824
C	5.5508861	-1.7220045	-0.1365761
H	4.4205747	0.0240610	-0.0362642
H	6.5008799	-2.2310338	-0.2208849
O	4.4559703	-2.5413613	-0.0394063
C	4.8020936	-3.9229766	-0.0701241
H	3.8803869	-4.5062765	0.0116740
H	5.4485423	-4.1806968	0.7757719
H	5.2894725	-4.1806962	-1.0166335
