29
-0.00208529 (energy)
C	-2.5593607	0.2116011	0.5768464
C	-1.4563435	0.8157837	1.0364051
H	-3.5372439	0.4639345	0.9725234
H	-2.5104964	-0.5455209	-0.2016408
H	-1.5041845	1.5700784	1.8120679
C	-0.1231517	0.4719290	0.4974344
O	0.0923932	-0.3540594	-0.3731945
O	0.7945830	1.2315635	1.1454593
C	2.1568733	1.0315293	0.7419506
C	2.7740030	-0.1097739	1.5284118
H	2.6943798	1.9605338	0.9586837
H	2.2322388	0.8608922	-0.3382311
H	2.6921037	0.0762332	2.6043389
H	3.8297558	-0.2320889	1.2705962
H	2.2538760	-1.0517182	1.3275728
C	9.3570509	3.2641805	-1.5438459
H	10.1579538	3.9962908	-1.5860748
H	9.1724545	2.6889062	-2.4435956
H	8.9020986	3.7248393	0.4410923
C	8.6508025	3.1047976	-0.4188911
C	7.5613257	2.1806503	-0.2009300
C	7.0531768	1.3109499	-1.0806328
H	7.1214643	2.2133168	0.7948624
H	7.4185456	1.2013949	-2.0921714
O	6.0119065	0.4853854	-0.7432498
C	5.6174356	-0.3642789	-1.8165945
H	4.7878355	-0.9871887	-1.4698671
H	6.4408849	-1.0224801	-2.1141819
H	5.2706830	0.2255027	-2.6720230
