29
-0.00326546 (energy)
C	1.1349261	2.1881287	-0.9229786
C	-0.1101102	1.8882160	-0.5320633
H	1.3817265	3.1829701	-1.2777576
H	1.9322574	1.4496980	-0.8975530
H	-0.9050453	2.6232988	-0.5572286
C	-0.4469641	0.5321528	-0.0485884
O	0.3353297	-0.3992416	0.0364529
O	-1.7648067	0.5215215	0.2714053
C	-2.2689721	-0.7263801	0.7686241
C	-2.7003074	-1.6137140	-0.3839954
H	-3.1344863	-0.4938302	1.3977042
H	-1.5328266	-1.2282481	1.4072225
H	-3.4359372	-1.0991809	-1.0109164
H	-3.1408222	-2.5436898	-0.0136774
H	-1.8507901	-1.8617169	-1.0281554
C	9.1472581	0.1385512	-0.3791681
H	10.2015379	0.2653215	-0.6064074
H	8.9042625	-0.3760078	0.5431920
H	8.5483744	1.1129892	-2.1258726
C	8.2175776	0.6072170	-1.2192631
C	6.7834295	0.5204288	-1.0636927
C	6.1145211	-0.0437494	-0.0523888
H	6.2044113	0.9698280	-1.8692520
H	6.5954799	-0.5154386	0.7931259
O	4.7438302	-0.0578221	-0.0271628
C	4.2245635	-0.7041442	1.1313860
H	3.1325076	-0.6737705	1.0769406
H	4.5383127	-0.1816310	2.0415493
H	4.5383125	-1.7530854	1.1648786
