29
-0.00200691 (energy)
C	1.4050966	1.8853772	-1.1827554
C	0.0986240	1.7235726	-0.9381610
H	1.7687704	2.7663366	-1.7005776
H	2.1376347	1.1445385	-0.8725787
H	-0.6318169	2.4611267	-1.2469843
C	-0.3975156	0.5227290	-0.2325080
O	0.2982316	-0.3921715	0.1744365
O	-1.7456315	0.6292736	-0.1302825
C	-2.4014872	-0.4574085	0.5387788
C	-2.7189304	-1.5651716	-0.4481527
H	-3.3318932	-0.0602511	0.9577616
H	-1.8030175	-0.8283228	1.3789254
H	-3.3177357	-1.1793226	-1.2797043
H	-3.2716028	-2.3728306	0.0399906
H	-1.8031579	-1.9802110	-0.8808540
C	5.4152789	5.0639260	-0.4873867
H	5.5173645	6.1067791	-0.7724310
H	5.4252698	4.8437974	0.5737492
H	5.2850159	4.4279080	-2.4717456
C	5.2851690	4.1201233	-1.4265464
C	5.1403848	2.6979481	-1.2144847
C	5.1090246	2.0564564	-0.0414647
H	5.0484723	2.1035681	-2.1224561
H	5.1921672	2.5542774	0.9145523
O	4.9658898	0.6943372	0.0199498
C	4.9559354	0.2050399	1.3578940
H	4.8390250	-0.8819203	1.3215314
H	4.1128690	0.6231729	1.9184826
H	5.9013219	0.4326972	1.8621303
