29
-0.00194569 (energy)
C	2.0995193	1.4860030	2.4487540
C	1.5171534	0.6331234	1.5965076
H	2.9320186	1.1709305	3.0685622
H	1.7591412	2.5137832	2.5460900
H	1.8555923	-0.3910175	1.4990577
C	0.3821752	1.0621884	0.7516090
O	-0.1108016	2.1773903	0.7485149
O	0.0000000	0.0000000	0.0000000
C	-1.0976573	0.2387779	-0.8926372
C	-2.4151286	0.0089905	-0.1761106
H	-0.9990246	-0.4733049	-1.7185583
H	-1.0475056	1.2439825	-1.3269620
H	-2.4501540	-0.9988745	0.2503945
H	-3.2568825	0.1309077	-0.8635919
H	-2.5381129	0.7108571	0.6547838
C	4.7929699	-2.4383265	-2.6972185
H	5.8431224	-2.2654429	-2.4815675
H	4.5509256	-2.8027188	-3.6887822
H	4.1964309	-1.8367762	-0.7889611
C	3.8669290	-2.2026309	-1.7609445
C	2.4383954	-2.3805266	-1.8880659
C	1.7721056	-2.8136953	-2.9636559
H	1.8616440	-2.1284074	-0.9992795
H	2.2511815	-3.0889153	-3.8928746
O	0.4067808	-2.9376630	-2.9514918
C	-0.1104532	-3.4132545	-4.1908010
H	-1.1982338	-3.4842137	-4.1004077
H	0.2816027	-4.4103609	-4.4186751
H	0.1225334	-2.7157396	-5.0026064
