29
-0.00311108 (energy)
C	1.2496108	-4.7698117	1.3364528
C	0.4022659	-3.8893303	0.7890618
H	0.9110692	-5.7567666	1.6327596
H	2.2961044	-4.5255100	1.5002562
H	-0.6404982	-4.1319179	0.6256722
C	0.8633314	-2.5437981	0.3852207
O	2.0018987	-2.1244163	0.5056134
O	-0.2002070	-1.8783207	-0.1297978
C	0.0675245	-0.5433975	-0.5825312
C	-0.0718281	0.4373691	0.5666515
H	-0.6736609	-0.3128595	-1.3548215
H	1.0550226	-0.4720198	-1.0530015
H	-1.0630029	0.3547827	1.0245570
H	0.0723128	1.4644130	0.2195953
H	0.6605703	0.2281457	1.3527467
C	5.2936660	-5.4480475	2.2629873
H	5.2779646	-6.5246079	2.4043573
H	5.4065819	-5.0899480	1.2463357
H	5.0669281	-5.0736123	4.3044466
C	5.1767954	-4.6302390	3.3152438
C	5.1788641	-3.1851910	3.2966173
C	5.2977642	-2.3925388	2.2260864
H	5.0706052	-2.7115364	4.2713372
H	5.4098477	-2.7636828	1.2169301
O	5.2842308	-1.0270361	2.3479346
C	5.4234529	-0.3644989	1.0944327
H	5.4033057	0.7140009	1.2758300
H	4.5923206	-0.6166906	0.4269941
H	6.3807734	-0.6166904	0.6256314
