29
-0.00191268 (energy)
C	-0.2975274	-0.4540408	-0.3091473
C	0.3048143	0.4976200	0.4150100
H	-0.0914158	-0.5603593	-1.3687238
H	-1.0071304	-1.1453583	0.1382982
H	1.0117823	1.1868278	-0.0300639
C	0.0239483	0.6429915	1.8593463
O	-0.7451678	-0.0529456	2.5003169
O	0.7662285	1.6785687	2.3239085
C	0.6217717	1.9625633	3.7228891
C	-0.5482256	2.9017388	3.9487184
H	1.5490642	2.4451473	4.0487377
H	0.5155394	1.0418322	4.3081742
H	-0.4265606	3.8162371	3.3589592
H	-0.6306990	3.1713955	5.0053769
H	-1.4889423	2.4408666	3.6312657
C	1.6982655	-1.7682437	-4.5501164
H	1.2552179	-1.9637488	-5.5220737
H	1.8895847	-2.6276357	-3.9181290
H	1.7576059	0.2929185	-4.8776178
C	1.9822670	-0.5141428	-4.1809455
C	2.5692056	-0.0885659	-2.9307845
C	2.9392163	-0.8660063	-1.9074812
H	2.7171366	0.9860281	-2.8332568
H	2.8344232	-1.9419815	-1.9057812
O	3.4875255	-0.3309078	-0.7705316
C	3.8130559	-1.3227080	0.1989878
H	4.2422611	-0.8188879	1.0698615
H	4.5579234	-2.0222786	-0.1955109
H	2.9151240	-1.8611486	0.5209162
