29
-0.00189705 (energy)
C	-0.7194699	-2.2523060	1.1564317
C	-1.2317859	-1.0152556	1.1456591
H	-1.1973085	-3.0469965	1.7191264
H	0.1850161	-2.4979322	0.6057625
H	-2.1327832	-0.7697215	1.6941285
C	-0.5805855	0.0683334	0.3789134
O	0.4355777	-0.0512663	-0.2842755
O	-1.3115705	1.1971716	0.5538512
C	-0.8236496	2.3603738	-0.1299336
C	0.2036809	3.0782937	0.7251256
H	-1.6839865	3.0161088	-0.2995446
H	-0.4163804	2.1030439	-1.1145669
H	-0.2185071	3.3294926	1.7036867
H	0.5385105	3.9985677	0.2382696
H	1.0757624	2.4426212	0.9082149
C	9.3900932	-0.0073023	1.9557175
H	10.4309792	0.0268591	2.2632946
H	8.6457396	0.0796515	2.7386240
H	9.8864599	-0.2311666	-0.0598898
C	9.0755263	-0.1508373	0.6633714
C	7.7486287	-0.2140437	0.0942821
C	6.5854299	-0.1412021	0.7501279
H	7.7164195	-0.3342137	-0.9876927
H	6.5099132	-0.0221581	1.8219641
O	5.3888305	-0.2150688	0.0850554
C	4.2692932	-0.1178132	0.9607170
H	3.3591621	-0.1847895	0.3576844
H	4.2662653	0.8453841	1.4823466
H	4.2662656	-0.9430689	1.6809820
