29
-0.00182412 (energy)
C	-0.2950974	-2.2214594	-1.3805396
C	-0.0467688	-0.9500468	-1.7192437
H	-0.3783592	-2.9926171	-2.1387422
H	-0.4203357	-2.5192807	-0.3426178
H	0.0779885	-0.6525196	-2.7530788
C	0.0665871	0.1014674	-0.6859992
O	-0.0499562	-0.0761247	0.5146631
O	0.3155386	1.2764701	-1.3157688
C	0.4619147	2.4173277	-0.4580475
C	-0.8939211	3.0355089	-0.1725576
H	1.0905419	3.1389403	-0.9900615
H	0.9862460	2.1555575	0.4683125
H	-1.4037654	3.2924231	-1.1068911
H	-0.7879003	3.9405213	0.4322201
H	-1.5417039	2.3326888	0.3608734
C	7.2525540	-0.1439461	-3.2243277
H	8.0436640	0.0116557	-3.9517530
H	6.8484880	-1.1466987	-3.1482761
H	7.2812333	1.8523881	-2.6135944
C	6.8201205	0.8752144	-2.4733110
C	5.7830984	0.8341960	-1.4676184
C	5.0601644	-0.2282416	-1.0973972
H	5.5857298	1.7827281	-0.9701446
H	5.1791547	-1.2121621	-1.5291942
O	4.1004933	-0.1302323	-0.1232034
C	3.4440997	-1.3700765	0.1248678
H	2.6985096	-1.2091441	0.9088762
H	4.1567756	-2.1235624	0.4772992
H	2.9273200	-1.7230561	-0.7741215
