29
-0.00180706 (energy)
C	0.5210082	-0.3386152	0.0643258
C	-0.6309308	0.3252769	-0.0942970
H	1.4192610	0.1761144	0.3878740
H	0.5923552	-1.4067138	-0.1247212
H	-0.7027864	1.3894162	0.0937091
C	-1.8555368	-0.3759929	-0.5355303
O	-1.9330061	-1.5666524	-0.7866069
O	-2.8534994	0.5393004	-0.6098733
C	-4.1295369	0.0287715	-1.0218882
C	-4.2286827	0.0260813	-2.5358585
H	-4.8908855	0.6959541	-0.6045735
H	-4.3134032	-0.9687636	-0.6063086
H	-4.0441684	1.0288485	-2.9350297
H	-5.2193688	-0.3058091	-2.8590205
H	-3.4771097	-0.6358072	-2.9776378
C	6.0715685	-2.1874167	-0.4905445
H	6.5719835	-3.1475404	-0.4071084
H	5.9991343	-1.7583596	-1.4831316
H	5.6948020	-2.0899795	1.5607285
C	5.5789828	-1.5892434	0.5999880
C	4.8906907	-0.3198455	0.6582789
C	4.6159556	0.4964044	-0.3648182
H	4.5699777	-0.0147200	1.6533614
H	4.8910526	0.2850752	-1.3887170
O	3.9520300	1.6801510	-0.1709761
C	3.7571746	2.4029900	-1.3830572
H	3.2245361	3.3283018	-1.1452187
H	3.1469676	1.8257602	-2.0861283
H	4.7184223	2.6664127	-1.8374239
