29
-0.00172839 (energy)
C	0.5786176	-2.1888088	-1.3424497
C	-0.5703892	-1.5998994	-0.9877010
H	0.5774439	-3.1129399	-1.9103129
H	1.5422012	-1.7628336	-1.0746523
H	-1.5307796	-2.0237359	-1.2539991
C	-0.5691908	-0.3402805	-0.2134371
O	0.4270289	0.2552916	0.1601287
O	-1.8600886	0.0160605	0.0006234
C	-2.0503626	1.2306813	0.7403258
C	-2.0446216	0.9431922	2.2300440
H	-3.0251448	1.6342731	0.4473254
H	-1.2979935	1.9821287	0.4741356
H	-2.8017541	0.1926255	2.4796944
H	-2.2478132	1.8532966	2.8014169
H	-1.0784796	0.5390973	2.5484845
C	3.2238773	-4.2571038	2.2885294
H	2.8030535	-5.1451472	2.7505906
H	2.5258812	-3.4834359	1.9905271
H	5.1770157	-4.9794530	2.4389605
C	4.5457522	-4.1545065	2.1101103
C	5.2585129	-3.0469135	1.5153625
C	4.7331342	-1.9163585	1.0313236
H	6.3397934	-3.1676678	1.4663894
H	3.6737975	-1.7006980	1.0331773
O	5.5271752	-0.9385192	0.4900684
C	4.7780405	0.1833849	0.0321013
H	5.4787859	0.9136954	-0.3827183
H	4.2393910	0.6556350	0.8607703
H	4.0803229	-0.1117935	-0.7590355
