29
-0.00170847 (energy)
C	0.1896381	-0.5248174	-0.2808054
C	-0.1457602	0.6155618	0.3355717
H	-0.5704105	-1.1706766	-0.7070449
H	1.2266270	-0.8375672	-0.3730295
H	-1.1786642	0.9277660	0.4279817
C	0.8900012	1.4961147	0.9169073
O	2.0900084	1.2811957	0.8944637
O	0.2633329	2.5633737	1.4714009
C	1.1238396	3.5344325	2.0839697
C	1.4075509	3.1488758	3.5236909
H	0.5948212	4.4927429	2.0571999
H	2.0508335	3.6627758	1.5131807
H	0.4726062	3.0260178	4.0802066
H	2.0145154	3.9130096	4.0173887
H	1.9379828	2.1928911	3.5771945
C	4.2407431	-1.9260447	0.1762324
H	4.2194741	-0.9075279	-0.1997803
H	4.1452506	-2.0536433	1.2482238
H	4.4692877	-2.7356499	-1.7346508
C	4.3795679	-2.9523422	-0.6706171
C	4.4262193	-4.3567534	-0.3330256
C	4.3396488	-4.8961691	0.8876329
H	4.5452624	-5.0307208	-1.1802235
H	4.2204122	-4.3146168	1.7911187
O	4.3984832	-6.2536452	1.0704578
C	4.2881800	-6.6263868	2.4410425
H	4.3436567	-7.7170956	2.5022763
H	3.3253673	-6.3071290	2.8544694
H	5.1138203	-6.2065468	3.0257563
