29
-0.0016976 (energy)
C	-3.0557855	-3.2325408	2.5122881
C	-2.7747730	-2.4748553	1.4446635
H	-4.0653124	-3.5855295	2.6932370
H	-2.2869450	-3.5159950	3.2265720
H	-3.5402182	-2.1919186	0.7326646
C	-1.3988017	-1.9933160	1.1977854
O	-0.4340366	-2.2258345	1.9062164
O	-1.4154626	-1.2561593	0.0595673
C	-0.1508260	-0.7080964	-0.3391667
C	0.0781066	0.6292038	0.3399219
H	-0.1909804	-0.5675173	-1.4243215
H	0.6689728	-1.4066981	-0.1355120
H	-0.7477682	1.3155125	0.1258272
H	1.0122653	1.0831754	-0.0025706
H	0.1233671	0.5148877	1.4275848
C	3.2905221	0.0620186	-2.8340898
H	2.9375627	0.3042109	-3.8320763
H	3.4707983	-0.9849609	-2.6198464
H	3.2777280	2.0614922	-2.2331658
C	3.4834561	1.0338475	-1.9351805
C	3.9461311	0.8793225	-0.5748243
C	4.2686725	-0.2622436	0.0426422
H	4.0341892	1.8062518	-0.0098505
H	4.2155834	-1.2331403	-0.4298493
O	4.6968368	-0.2692746	1.3450453
C	4.9896907	-1.5809641	1.8176050
H	5.3223412	-1.5016399	2.8566065
H	5.7966369	-2.0341312	1.2316586
H	4.0953556	-2.2128185	1.7899892
