29
-0.00283773 (energy)
C	0.1904207	0.0594442	0.5919916
C	-0.1504960	-0.0454060	-0.6986129
H	-0.5191567	-0.1826212	1.3758234
H	1.1818098	0.3881226	0.8932918
H	-1.1380296	-0.3726521	-0.9995931
C	0.8164218	0.2846792	-1.7673691
O	1.9604989	0.6663406	-1.5881112
O	0.1994934	0.0898696	-2.9592863
C	0.9993893	0.3597303	-4.1194628
C	0.9088659	1.8287002	-4.4880769
H	0.5960689	-0.2496727	-4.9348747
H	2.0393009	0.0475721	-3.9686961
H	-0.1349455	2.1242271	-4.6365586
H	1.4677273	2.0334430	-5.4055725
H	1.3077916	2.4599158	-3.6877317
C	5.0000280	-3.0756325	1.1639284
H	4.9182452	-4.1495641	1.3024813
H	5.1149134	-2.7212259	0.1462039
H	4.8394204	-2.6960346	3.2107011
C	4.9572891	-2.2564502	2.2207287
C	5.0515895	-0.8144334	2.2062383
C	5.1991985	-0.0265260	1.1357783
H	4.9938046	-0.3389213	3.1843470
H	5.2666675	-0.3998387	0.1234579
O	5.2756977	1.3365177	1.2618240
C	5.4315132	1.9940463	0.0076377
H	5.4842330	3.0708515	0.1925268
H	4.5724925	1.7983884	-0.6432517
H	6.3609453	1.6830581	-0.4815248
