29
-0.00165228 (energy)
C	0.1904207	0.0594442	0.5919916
C	-0.1504960	-0.0454060	-0.6986129
H	-0.5191567	-0.1826212	1.3758234
H	1.1818098	0.3881226	0.8932918
H	-1.1380296	-0.3726521	-0.9995931
C	0.8164218	0.2846792	-1.7673691
O	1.9604989	0.6663406	-1.5881112
O	0.1994934	0.0898696	-2.9592863
C	0.9993892	0.3597303	-4.1194628
C	0.9088659	1.8287002	-4.4880769
H	0.5960689	-0.2496727	-4.9348747
H	2.0393009	0.0475721	-3.9686961
H	-0.1349455	2.1242271	-4.6365586
H	1.4677273	2.0334430	-5.4055725
H	1.3077916	2.4599158	-3.6877317
C	7.9310214	-4.7179348	0.4958680
H	8.5698889	-5.5821544	0.3403453
H	7.0335678	-4.6581225	-0.1087520
H	9.1856399	-3.9265014	1.9651309
C	8.2648820	-3.7891611	1.3989901
C	7.5282291	-2.5889550	1.7235867
C	6.3751469	-2.1795535	1.1838989
H	7.9796261	-1.9652694	2.4939143
H	5.8480998	-2.7258724	0.4141820
O	5.7775515	-1.0126741	1.5850225
C	4.5603633	-0.7546945	0.8911168
H	4.1485278	0.1869231	1.2655771
H	3.8297162	-1.5487759	1.0793861
H	4.7408965	-0.6478413	-0.1839776
