29
-0.00164765 (energy)
C	0.2906913	-0.4840918	-0.2672103
C	-0.3910309	0.5394773	0.2623544
H	1.2973116	-0.7130496	0.0656289
H	-0.1396095	-1.1136457	-1.0419147
H	0.0370238	1.1672293	1.0341047
C	-1.7631420	0.8520180	-0.1912481
O	-2.3772734	0.2405821	-1.0489777
O	-2.1970199	1.9279960	0.5110617
C	-3.5258427	2.3719173	0.2014949
C	-3.4959853	3.3403280	-0.9660806
H	-3.9085824	2.8811408	1.0920776
H	-4.1934200	1.5253781	0.0032484
H	-2.8266329	4.1800361	-0.7521109
H	-4.4967589	3.7301941	-1.1722367
H	-3.1173900	2.8537455	-1.8705309
C	3.4072211	-2.1701840	-1.7145964
H	3.1591185	-3.1292847	-2.1593270
H	3.1027723	-1.2847173	-2.2603303
H	4.3278776	-3.0579084	-0.0642919
C	4.0585046	-2.1190485	-0.5471514
C	4.4598266	-0.9316367	0.1722295
C	4.2567952	0.3391098	-0.1917110
H	4.9828159	-1.1154093	1.1097034
H	3.7490592	0.6264618	-1.1018429
O	4.6916796	1.3796947	0.5878316
C	4.3788197	2.6513924	0.0270203
H	4.7562864	3.4235175	0.7036402
H	3.2950161	2.7779477	-0.0689449
H	4.8664713	2.7779473	-0.9456140
