29
-0.00162626 (energy)
C	-3.4758170	-0.4575040	-0.5674227
C	-2.1453757	-0.6044048	-0.5324417
H	-4.1046700	-1.2000782	-1.0466048
H	-3.9646454	0.4042507	-0.1201093
H	-1.6576112	-1.4625911	-0.9779795
C	-1.2878130	0.4077267	0.1204765
O	-1.6869543	1.4243014	0.6626694
O	0.0000000	0.0000000	0.0000000
C	0.9796259	0.8682643	0.5874674
C	1.3892359	1.9420331	-0.4030797
H	1.8470029	0.2487230	0.8379903
H	0.6151090	1.3051579	1.5243991
H	1.7519607	1.4899595	-1.3320498
H	2.1786860	2.5735855	0.0139979
H	0.5379510	2.5766634	-0.6689475
C	7.7533386	-0.1591240	1.4355942
H	8.6624640	0.3045990	1.8066285
H	7.5437992	-1.1662829	1.7766075
H	7.2369093	1.5185611	0.3051778
C	6.9516573	0.5086656	0.5982907
C	5.7149643	0.0367505	0.0182894
C	5.1381522	-1.1547885	0.2080096
H	5.2156657	0.7448265	-0.6416173
H	5.5528923	-1.9254707	0.8426328
O	3.9561795	-1.4780629	-0.4068579
C	3.5084063	-2.7895311	-0.0764704
H	2.5667059	-2.9699509	-0.6028940
H	3.3233660	-2.8775780	0.9995703
H	4.2345455	-3.5419458	-0.4027092
