29
-0.00159227 (energy)
C	-0.8149346	2.5022624	-0.0491776
C	0.0016537	1.7817449	-0.8282256
H	-1.0110016	3.5469085	-0.2654188
H	-1.3038276	2.0666238	0.8185011
H	0.4892059	2.2150717	-1.6927616
C	0.2693304	0.3577708	-0.5336530
O	-0.2020621	-0.2684135	0.4003671
O	1.1240926	-0.1074637	-1.4781933
C	1.4930493	-1.4880989	-1.3501893
C	2.6859647	-1.6277942	-0.4231611
H	1.7616416	-1.8415436	-2.3511243
H	0.6475682	-2.0973009	-1.0101535
H	3.5216300	-1.0150568	-0.7769149
H	3.0120920	-2.6700635	-0.3652011
H	2.4419361	-1.2813924	0.5860877
C	7.0327490	3.6015794	-4.0311970
H	7.1988977	4.2074332	-4.9169453
H	7.7787186	3.6660607	-3.2476554
H	5.2474037	2.8173149	-4.7772794
C	5.9482777	2.8232044	-3.9430649
C	5.5838472	1.9630292	-2.8404299
C	6.2601194	1.7820844	-1.7009625
H	4.6539057	1.4120026	-2.9735694
H	7.1915726	2.2811755	-1.4729053
O	5.8005179	0.9310024	-0.7293382
C	6.6621853	0.8781660	0.4039505
H	6.2288133	0.1826027	1.1284180
H	6.7423368	1.8625864	0.8776043
H	7.6535156	0.5074909	0.1216350
