29
-0.0015836 (energy)
C	-0.0192161	-0.2151365	-0.5861695
C	0.0940461	0.2604572	0.6603697
H	-0.9694919	-0.5850375	-0.9558143
H	0.8312195	-0.2455943	-1.2625535
H	-0.7527158	0.2910057	1.3348790
C	1.3892942	0.7645756	1.1646743
O	2.4288933	0.7944225	0.5282358
O	1.2048096	1.1747518	2.4441034
C	2.3680743	1.7042451	3.0961155
C	3.1669366	0.5831949	3.7340879
H	2.0149465	2.3918113	3.8716730
H	2.9824888	2.2899739	2.4025695
H	2.5402145	0.0090936	4.4244157
H	4.0240677	0.9820375	4.2839012
H	3.5327549	-0.1183278	2.9776686
C	3.9367378	-2.1653990	-1.7578712
H	4.1671612	-1.1062679	-1.8239067
H	4.0720631	-2.7523795	-2.6588189
H	3.3995596	-2.0277781	0.2550044
C	3.5081845	-2.6892981	-0.6039280
C	3.1614800	-4.0695321	-0.3524025
C	3.2030988	-5.0832592	-1.2236638
H	2.8334183	-4.2845533	0.6636138
H	3.5138049	-4.9741656	-2.2533566
O	2.8449940	-6.3537648	-0.8532528
C	2.9581970	-7.2879033	-1.9229144
H	2.6567423	-8.2707615	-1.5493003
H	3.9942579	-7.3554976	-2.2720056
H	2.2929763	-7.0151275	-2.7492997
