29
-0.00158231 (energy)
C	1.6518069	1.1436270	1.7004425
C	1.7844482	0.6898443	0.4476995
H	2.4917188	1.5898630	2.2218921
H	0.7052164	1.0797673	2.2310573
H	2.7272106	0.7529792	-0.0815593
C	0.6398086	0.0813050	-0.2633604
O	-0.4800092	-0.0609981	0.1975832
O	1.0654943	-0.2840808	-1.4980681
C	0.0740162	-0.8934816	-2.3372757
C	0.0194450	-2.3882496	-2.0830437
H	0.3740086	-0.7073424	-3.3737567
H	-0.9081311	-0.4270165	-2.1980402
H	1.0067555	-2.8391165	-2.2274820
H	-0.6915256	-2.8709624	-2.7594703
H	-0.2799075	-2.6007285	-1.0518463
C	0.2938942	-2.8481149	-6.9254643
H	-0.5308645	-3.3591609	-7.4131317
H	0.6500464	-3.2726223	-5.9940595
H	0.4043584	-1.3885629	-8.4143139
C	0.8225786	-1.7488955	-7.4749391
C	1.9151987	-0.9580032	-6.9561080
C	2.6039954	-1.1742747	-5.8303830
H	2.1905801	-0.0974025	-7.5641204
H	2.4089176	-1.9990736	-5.1592955
O	3.6247044	-0.3414192	-5.4507350
C	4.2306988	-0.7421158	-4.2252479
H	5.0296889	-0.0320979	-3.9929504
H	4.6733256	-1.7397443	-4.3183852
H	3.5031240	-0.7211850	-3.4066915
