29
-0.00282599 (energy)
C	-0.1610555	-2.4831367	-0.8578735
C	0.1209202	-1.3172309	-1.4528786
H	-0.1705103	-3.4082270	-1.4240948
H	-0.3878961	-2.5394623	0.2037453
H	0.3468808	-1.2602716	-2.5105171
C	0.1336965	-0.0559630	-0.6814086
O	-0.1003043	0.0419856	0.5112191
O	0.4447253	0.9498438	-1.5362956
C	0.5076962	2.2588344	-0.9521330
C	-0.8688207	2.8968905	-0.9467636
H	1.1864020	2.8535587	-1.5722921
H	0.9382819	2.2259795	0.0553917
H	-1.2842133	2.9235102	-1.9595151
H	-0.8214946	3.9178487	-0.5575998
H	-1.5667049	2.3203775	-0.3313631
C	5.5263315	-0.2408657	3.8473715
H	6.5672175	-0.4759590	3.6461209
H	4.7819779	-0.8392716	3.3351080
H	6.0226982	1.2997416	5.1662032
C	5.2117646	0.7469249	4.6929662
C	3.8848670	1.1819023	5.0653268
C	2.7216682	0.6806138	4.6362003
H	3.8526578	2.0088978	5.7732735
H	2.6461515	-0.1386324	3.9348874
O	1.5250688	1.1889548	5.0713637
C	0.4055315	0.5196526	4.4984096
H	-0.5045996	0.9805741	4.8929796
H	0.4025036	-0.5400665	4.7756133
H	0.4025039	0.6301359	3.4086288
