29
-0.0015376 (energy)
C	-3.1774297	0.9052976	1.3026738
C	-1.8989503	0.5309289	1.1677064
H	-3.6254666	1.0093236	2.2849821
H	-3.8026246	1.1153309	0.4385668
H	-1.2754786	0.3213665	2.0280950
C	-1.2879229	0.3888128	-0.1711642
O	-1.8589325	0.5872710	-1.2300662
O	0.0000000	0.0000000	0.0000000
C	0.7546885	-0.1833842	-1.2064341
C	0.5620620	-1.5921300	-1.7358429
H	1.8080541	-0.0269718	-0.9516950
H	0.4911505	0.5676671	-1.9601312
H	0.8306326	-2.3297936	-0.9725294
H	1.1793938	-1.7609301	-2.6226640
H	-0.4848290	-1.7731412	-1.9992468
C	4.8013885	0.1068808	-0.8354795
H	4.6476152	0.6224741	0.1077765
H	4.7370443	0.7059105	-1.7363619
H	5.1038909	-1.7338043	0.1023577
C	5.0563303	-1.2063258	-0.8498384
C	5.2831213	-2.0343906	-2.0123311
C	5.2812269	-1.6460105	-3.2920297
H	5.4742864	-3.0852435	-1.7994655
H	5.1022058	-0.6275844	-3.6074134
O	5.5121439	-2.5393091	-4.3060922
C	5.4678350	-1.9296341	-5.5929249
H	5.6603611	-2.7028517	-6.3422853
H	6.2421491	-1.1604019	-5.6855279
H	4.4782569	-1.5017342	-5.7865089
