29
-0.00153184 (energy)
C	0.5037676	-0.3250339	0.1755531
C	-0.6022768	0.3099110	-0.2323544
H	1.2715040	0.1990984	0.7344396
H	0.6665182	-1.3782354	-0.0387890
H	-0.7650893	1.3592028	-0.0193272
C	-1.6489354	-0.4041711	-0.9944033
O	-1.6096605	-1.5809488	-1.3112043
O	-2.6376684	0.4818585	-1.2711284
C	-3.7497457	-0.0451134	-2.0088630
C	-3.4742277	0.0329228	-3.4988104
H	-4.6189682	0.5735526	-1.7626097
H	-3.9856047	-1.0694433	-1.6978830
H	-3.2419981	1.0615857	-3.7935090
H	-4.3396672	-0.3116829	-4.0717896
H	-2.6087047	-0.5794136	-3.7709162
C	3.4784816	3.7323264	-2.7452821
H	3.2683029	4.6388028	-3.3050499
H	3.7737311	2.8611157	-3.3183313
H	3.0657302	4.6453584	-0.9135679
C	3.3686465	3.7250523	-1.4120168
C	3.6109953	2.6088505	-0.5266493
C	3.9903431	1.3736124	-0.8712550
H	3.4624923	2.8192503	0.5315692
H	4.1637339	1.0645739	-1.8925962
O	4.1869440	0.4007849	0.0745688
C	4.5873817	-0.8424349	-0.4943422
H	4.7228701	-1.5607586	0.3193695
H	5.5406359	-0.7385734	-1.0238466
H	3.8151148	-1.2280878	-1.1686666
