29
-0.00151319 (energy)
C	-3.4563082	-0.5964838	0.5574252
C	-2.2179881	-0.5741136	0.0485632
H	-4.2562658	-1.1249731	0.0502220
H	-3.6977873	-0.0894525	1.4881618
H	-1.9766476	-1.0788902	-0.8787217
C	-1.1273187	0.1463661	0.7395590
O	-1.2422727	0.7605552	1.7865874
O	0.0000000	0.0000000	0.0000000
C	1.1719078	0.6368870	0.5288429
C	1.2393484	2.0794048	0.0635072
H	2.0364783	0.0856398	0.1446810
H	1.2054901	0.5663600	1.6222265
H	1.2062711	2.1327061	-1.0296489
H	2.1592225	2.5568959	0.4126171
H	0.3847746	2.6528586	0.4363097
C	6.7618752	-0.2130578	4.5379818
H	7.1015164	-0.3489452	5.5604263
H	7.1786521	0.6249643	3.9915554
H	5.5015372	-1.8752100	4.6272347
C	5.8702969	-1.0580240	4.0080447
C	5.3209051	-1.0155518	2.6720508
C	5.5988462	-0.1252828	1.7135932
H	4.6049559	-1.8036078	2.4428521
H	6.2939143	0.6928629	1.8409709
O	5.0035090	-0.1991701	0.4808150
C	5.4318004	0.8382533	-0.3966385
H	4.9150653	0.7102647	-1.3521889
H	6.5102482	0.7739910	-0.5774053
H	5.1694537	1.8220533	0.0072793
