29
-0.00147534 (energy)
C	0.5234006	-4.9495348	1.1519087
C	-0.2377806	-3.8896595	0.8516668
H	0.0890690	-5.8369484	1.5995036
H	1.5930348	-4.9545121	0.9582039
H	-1.3034706	-3.8838764	1.0444699
C	0.3539537	-2.6797266	0.2417169
O	1.5330457	-2.5347728	-0.0329497
O	-0.6432593	-1.7799775	0.0540044
C	-0.2475109	-0.5352360	-0.5398553
C	0.2148604	0.4332863	0.5325814
H	-1.1283384	-0.1287304	-1.0476269
H	0.5237546	-0.6850670	-1.3042439
H	-0.5663501	0.5732489	1.2869328
H	0.4628799	1.4051208	0.0966139
H	1.0968185	0.0493251	1.0549329
C	4.9154833	-3.1990688	-2.0011396
H	4.7275024	-4.2297861	-2.2866203
H	4.0714921	-2.6351443	-1.6213583
H	6.9354262	-3.3172388	-2.5159545
C	6.1424562	-2.6804833	-2.1249126
C	6.5547735	-1.3359874	-1.7919857
C	5.7896380	-0.3567409	-1.2979058
H	7.6069110	-1.1189185	-1.9709700
H	4.7357902	-0.4708821	-1.0855767
O	6.3096320	0.8819505	-1.0242677
C	5.3347400	1.7822355	-0.5059262
H	5.8250579	2.7411611	-0.3148166
H	4.9260219	1.4103004	0.4398379
H	4.5311781	1.9454247	-1.2322150
