29
-0.00146902 (energy)
C	3.0075084	0.9542905	-1.6299710
C	2.0860728	0.6201704	-0.7177222
H	4.0228144	1.1936203	-1.3327117
H	2.7693139	0.9961381	-2.6897709
H	2.3225623	0.5783893	0.3383218
C	0.7019061	0.2940706	-1.1225277
O	0.2841652	0.2980711	-2.2680352
O	0.0000000	0.0000000	0.0000000
C	-1.3763740	-0.3487163	-0.2065411
C	-2.2356971	0.9014637	-0.2301382
H	-1.6748254	-0.9844290	0.6335375
H	-1.5053084	-0.9411178	-1.1197914
H	-2.0968270	1.4808634	0.6885219
H	-3.2938252	0.6429333	-0.3279686
H	-1.9569748	1.5541329	-1.0634834
C	7.2398600	-0.6807148	4.0020980
H	7.3405975	-1.2549920	4.9182160
H	7.3634755	0.3930209	4.0819530
H	6.8660451	-2.3842066	2.8542540
C	6.9754187	-1.3001653	2.8462153
C	6.8124694	-0.6851151	1.5486499
C	6.8949062	0.6175279	1.2574515
H	6.6001196	-1.3764216	0.7343094
H	7.1010627	1.3826123	1.9928782
O	6.7183296	1.0717720	-0.0239972
C	6.8453602	2.4871314	-0.1251227
H	6.6920969	2.7683762	-1.1710121
H	7.8483375	2.8098239	0.1744798
H	6.0844451	2.9900668	0.4814266
