29
-0.00146845 (energy)
C	0.5210082	-0.3443620	-0.0145912
C	-0.6309308	0.3382102	-0.0176320
H	1.4192610	0.0830181	0.4178164
H	0.5923552	-1.3412024	-0.4422390
H	-0.7027864	1.3314329	0.4080993
C	-1.8555368	-0.2439561	-0.6071645
O	-1.9330061	-1.3459819	-1.1231576
O	-2.8534994	0.6641722	-0.4708138
C	-4.1295369	0.2610573	-0.9883989
C	-4.2286827	0.6037023	-2.4630879
H	-4.8908855	0.8154893	-0.4299284
H	-4.3134032	-0.8049656	-0.8112604
H	-4.0441684	1.6710774	-2.6230572
H	-5.2193688	0.3542554	-2.8534226
H	-3.4771097	0.0600041	-3.0441710
C	4.6254453	0.7511436	0.1204261
H	5.2738314	0.0289548	-0.3666604
H	4.2942775	1.5922917	-0.4773729
H	4.6489491	-0.2933364	1.9280978
C	4.2710261	0.5810647	1.3991650
C	3.4210927	1.4443874	2.1870749
C	2.8285837	2.5750728	1.7883835
H	3.2593305	1.1195013	3.2139291
H	2.9261078	2.9817254	0.7914735
O	2.0420463	3.3044489	2.6421970
C	1.5040733	4.4718343	2.0278664
H	0.8929947	4.9951320	2.7689570
H	0.8635272	4.2050425	1.1802942
H	2.3051614	5.1454950	1.7049470
