29
-0.002668 (energy)
C	-1.3391381	2.2104199	0.4986049
C	-1.6182749	1.0976950	-0.1919047
H	-2.0621970	3.0156507	0.5712490
H	-0.3860416	2.3414660	1.0046658
H	-2.5675330	0.9664439	-0.6964678
C	-0.6328116	-0.0000766	-0.2913311
O	0.4747597	0.0000575	0.2185678
O	-1.1829417	-0.9840945	-1.0451770
C	-0.3597396	-2.1422975	-1.2441039
C	0.5459615	-1.9413593	-2.4446340
H	-1.0333161	-2.9856354	-1.4285269
H	0.2164188	-2.3820174	-0.3429017
H	-0.0441035	-1.7043515	-3.3360239
H	1.1355976	-2.8413574	-2.6405332
H	1.2310312	-1.1029053	-2.2840052
C	4.1107358	1.9367635	5.7575423
H	4.0156590	2.3093241	6.7731079
H	3.2137440	1.9405554	5.1493014
H	6.1460111	1.5318096	5.9874008
C	5.2935623	1.5010008	5.3094961
C	5.5850762	0.9783781	3.9940493
C	4.7295120	0.8313668	2.9767644
H	6.6199698	0.6778810	3.8364286
H	3.6835837	1.0991512	3.0318324
O	5.1385305	0.3191446	1.7726214
C	4.0798791	0.2435129	0.8222833
H	4.4844871	-0.1722668	-0.1050205
H	3.6792224	1.2398964	0.6065290
H	3.2843786	-0.4199236	1.1784695
