29
-0.00131383 (energy)
C	-0.6006571	-4.9338500	-1.1811315
C	-0.1224083	-3.9682664	-0.3862705
H	-0.2065765	-5.9430294	-1.1287336
H	-1.3932119	-4.7387303	-1.8990791
H	0.6672750	-4.1618325	0.3291554
C	-0.6591994	-2.5924395	-0.4575567
O	-1.5441155	-2.2202841	-1.2093113
O	0.0092577	-1.8389977	0.4505780
C	-0.3891469	-0.4625322	0.5232701
C	0.3792415	0.3596932	-0.4943093
H	-0.1511130	-0.1135558	1.5334638
H	-1.4718943	-0.3529483	0.3919725
H	1.4579879	0.2407634	-0.3490949
H	0.1259986	1.4200166	-0.4069813
H	0.1569629	0.0302103	-1.5141919
C	7.3221061	-2.9041406	-1.0153653
H	7.9320196	-3.7866301	-1.1839838
H	7.6803035	-1.9736807	-1.4402237
H	5.9002317	-3.9704668	0.0802578
C	6.1877554	-2.9954910	-0.3120753
C	5.2700539	-1.9233516	-0.0008582
C	5.3802175	-0.6387674	-0.3560743
H	4.4016973	-2.2161985	0.5876526
H	6.2026351	-0.2481115	-0.9389331
O	4.4323401	0.2827546	0.0071799
C	4.7319821	1.5920904	-0.4676465
H	3.9340533	2.2639876	-0.1385015
H	4.7671718	1.6100509	-1.5623131
H	5.6783508	1.9505324	-0.0484289
