29
-0.00122879 (energy)
C	0.4335186	0.6184133	-5.0525601
C	0.5013478	-0.1449912	-3.9546118
H	0.9097496	0.3074353	-5.9761318
H	-0.0969755	1.5672225	-5.0534656
H	1.0297894	-1.0903209	-3.9528703
C	-0.1475183	0.2786849	-2.6954068
O	-0.7752260	1.3124282	-2.5402647
O	0.0873872	-0.6796871	-1.7650518
C	-0.4792425	-0.4344080	-0.4698929
C	0.4731323	0.3961077	0.3698506
H	-0.6310738	-1.4103117	0.0028600
H	-1.4635934	0.0414725	-0.5485089
H	1.4503185	-0.0928975	0.4398969
H	0.0766042	0.5388762	1.3790217
H	0.6404968	1.3788957	-0.0820833
C	7.8106583	-3.2319129	-0.1920369
H	8.5151840	-4.0156585	-0.4539547
H	8.2244204	-2.3234841	0.2300103
H	6.1682181	-4.3559000	-0.8230765
C	6.5003432	-3.4112078	-0.3936321
C	5.4402843	-2.4735193	-0.1011762
C	5.5675366	-1.2508597	0.4254938
H	4.4372252	-2.8213755	-0.3441083
H	6.5175304	-0.8143630	0.7006110
O	4.4726208	-0.4579428	0.6536829
C	4.8187440	0.8036341	1.2178001
H	3.8970374	1.3730068	1.3686127
H	5.4651928	1.3692315	0.5380506
H	5.3061230	0.6741192	2.1901814
