29
-0.00121248 (energy)
C	-0.5275112	-1.2805849	3.2702319
C	-0.3306455	-0.4780119	2.2166674
H	-0.6306214	-0.8711548	4.2693432
H	-0.5897761	-2.3601123	3.1588435
H	-0.2683585	0.5975737	2.3268393
C	-0.1898329	-1.0357721	0.8546096
O	-0.2356667	-2.2207800	0.5711195
O	0.0000000	0.0000000	0.0000000
C	0.1525223	-0.3592748	-1.3806977
C	1.6058301	-0.6731536	-1.6828892
H	-0.1682772	0.5038761	-1.9731452
H	-0.5027026	-1.1957220	-1.6501902
H	2.2464898	0.1717679	-1.4097807
H	1.7426326	-0.8908562	-2.7458729
H	1.9505705	-1.5348354	-1.1025567
C	-1.2179545	3.5086476	1.5985644
H	-2.3013786	3.5070228	1.5250526
H	-0.6645871	3.4880562	0.6669387
H	-1.2572297	3.5547753	3.6855473
C	-0.6257367	3.5351549	2.7978511
C	0.7944639	3.5410654	3.0652651
C	1.7845207	3.5211993	2.1664526
H	1.0647605	3.5643785	4.1200371
H	1.6215629	3.4975837	1.0979986
O	3.0987892	3.5298235	2.5566472
C	3.9977188	3.5054011	1.4516881
H	5.0188036	3.5140686	1.8438405
H	3.8635834	4.3914276	0.8217513
H	3.8635833	2.5924170	0.8615140
