29
-0.00116481 (energy)
C	-1.0110304	-1.6185123	-1.8127574
C	-0.7116162	-0.3134609	-1.8044168
H	-1.4314293	-2.0867603	-2.6962146
H	-0.8436863	-2.2458282	-0.9409005
H	-0.8781710	0.3122116	-2.6725730
C	-0.1387351	0.3252277	-0.6002531
O	0.1040844	-0.2439984	0.4503331
O	0.0569574	1.6376540	-0.8803597
C	0.6179473	2.4188395	0.1843972
C	-0.4831469	2.9358262	1.0911824
H	1.1397288	3.2627926	-0.2786612
H	1.3657165	1.8480121	0.7470579
H	-1.2204575	3.5044357	0.5150038
H	-0.0713271	3.5812515	1.8721269
H	-1.0199429	2.1095262	1.5678434
C	3.7411783	-2.8155049	-0.6793278
H	3.6090806	-3.6718182	-1.3339209
H	3.9515323	-3.0246719	0.3630570
H	3.4283150	-1.4525411	-2.2296872
C	3.6424996	-1.5741903	-1.1683205
C	3.7904412	-0.3375880	-0.4352155
C	4.0535698	-0.1994823	0.8686868
H	3.6705974	0.5674529	-1.0290892
H	4.1895919	-1.0336710	1.5427300
O	4.1694344	1.0400956	1.4428382
C	4.4509326	0.9727807	2.8377694
H	4.5278291	1.9952096	3.2188189
H	5.4051271	0.4658658	3.0177856
H	3.6412347	0.4658664	3.3737404
