29
-0.00102176 (energy)
C	2.7768493	-4.2630336	-0.4630218
C	1.8240232	-3.4308895	-0.9018112
H	2.8367389	-5.2821590	-0.8294707
H	3.5153301	-3.9462835	0.2690842
H	1.0878526	-3.7457492	-1.6310699
C	1.7419368	-2.0416675	-0.4023614
O	2.4944880	-1.5427213	0.4170471
O	0.6898672	-1.4427709	-1.0136638
C	0.4615100	-0.0741002	-0.6486144
C	-0.4141697	-0.0008973	0.5882241
H	-0.0518526	0.4003605	-1.4913967
H	1.4058984	0.4631933	-0.5035767
H	-1.3532044	-0.5404657	0.4269632
H	-0.6429426	1.0383758	0.8404506
H	0.0784290	-0.4684822	1.4466169
C	4.0426153	4.0062013	6.5765625
H	3.9879547	4.6109893	7.4768170
H	3.7972012	4.4971026	5.6420286
H	4.6299704	2.3036609	7.6327528
C	4.3993921	2.7190731	6.6522228
C	4.5192848	1.7851312	5.5559139
C	4.2968001	2.0296373	4.2600788
H	4.8252232	0.7789396	5.8389821
H	3.9903643	2.9932117	3.8775498
O	4.4480028	1.0475736	3.3154538
C	4.1645255	1.5079668	1.9973930
H	4.3070991	0.6715316	1.3070874
H	4.8510382	2.3118016	1.7103290
H	3.1255175	1.8457533	1.9186505
