29
-0.00265225 (energy)
C	-1.2424610	-1.0290912	2.0796913
C	-1.4393957	0.0666598	1.3357664
H	-1.8978835	-1.2609339	2.9122526
H	-0.4254858	-1.7162408	1.8746529
H	-2.2530123	0.7518069	1.5394899
C	-0.5460420	0.3831388	0.2009156
O	0.4096618	-0.2874455	-0.1507347
O	-0.9810592	1.5390097	-0.3593883
C	-0.2266579	1.9988573	-1.4899132
C	0.9455496	2.8444804	-1.0286168
H	-0.9024993	2.6080218	-2.0990871
H	0.1044006	1.1621158	-2.1158953
H	0.5985207	3.6759286	-0.4063706
H	1.4928249	3.2487130	-1.8848466
H	1.6376739	2.2566023	-0.4174779
C	4.2315295	-1.0139681	-5.5656098
H	4.1364526	-1.0592445	-6.6464080
H	3.3345376	-1.2029780	-4.9874690
H	6.2668047	-0.5582216	-5.6610957
C	5.4143560	-0.7355114	-5.0060596
C	5.7058698	-0.6387208	-3.5939101
C	4.8503056	-0.8087846	-2.5802241
H	6.7407635	-0.4005680	-3.3521954
H	3.8043773	-1.0470407	-2.7142951
O	5.2593241	-0.6879732	-1.2772520
C	4.2006727	-0.9056137	-0.3490842
H	4.6052808	-0.7922717	0.6608260
H	3.8000160	-1.9203465	-0.4473053
H	3.4051722	-0.1651788	-0.4860981
