29
-0.000990954 (energy)
C	-0.3509194	2.4466816	-4.4709441
C	0.1115931	2.3547840	-3.2177424
H	-0.3349572	3.3926409	-5.0014102
H	-0.7542590	1.5826723	-4.9929297
H	0.5134542	3.2151404	-2.6969772
C	0.0898033	1.0655211	-2.4942424
O	-0.3308577	0.0131273	-2.9439342
O	0.6121101	1.2737483	-1.2601212
C	0.6742907	0.1171924	-0.4132565
C	-0.6328398	-0.0528895	0.3380258
H	1.4887060	0.2856703	0.2989786
H	0.9281460	-0.7829521	-0.9849968
H	-0.8713508	0.8531948	0.9046376
H	-0.5750765	-0.8973951	1.0304978
H	-1.4639731	-0.2241617	-0.3533574
C	4.5345464	0.1372482	1.8020854
H	4.4527637	0.1180905	0.7194225
H	4.6494319	1.1096311	2.2666698
H	4.3739388	-1.9389187	1.9534258
C	4.4918075	-1.0035208	2.4996041
C	4.5861079	-1.1482992	3.9344078
C	4.7337169	-0.1713561	4.8356651
H	4.5283230	-2.1729209	4.2990431
H	4.8011859	0.8759866	4.5763811
O	4.8102162	-0.4470942	6.1764650
C	4.9660317	0.7268446	6.9684214
H	5.0187514	0.4242198	8.0182365
H	4.1070109	1.3953544	6.8458091
H	5.8954638	1.2473468	6.7133310
