29
-0.000920172 (energy)
C	-0.4041918	3.0424535	4.0839738
C	-0.0584823	1.8792534	3.5179985
H	-0.5309090	3.1219741	5.1582677
H	-0.5677688	3.9376397	3.4893749
H	0.1045266	0.9869307	4.1096826
C	0.1141377	1.7704158	2.0535932
O	-0.0346873	2.6820555	1.2576816
O	0.4582243	0.4894757	1.7707239
C	0.6731514	0.2006630	0.3818174
C	-0.6386024	-0.1674561	-0.2858155
H	1.3612604	-0.6497614	0.3346963
H	1.1617867	1.0384010	-0.1290840
H	-1.1130137	-1.0057995	0.2347990
H	-0.4769339	-0.4467059	-1.3307684
H	-1.3444693	0.6684770	-0.2527215
C	3.8180607	-0.8138991	-1.5428070
H	4.1433991	-1.2570129	-0.6063139
H	3.2999868	-1.4645106	-2.2376954
H	4.5886017	1.0608118	-1.0419144
C	4.0610937	0.4771053	-1.7957014
C	3.6967340	1.2127311	-2.9850760
C	3.0486837	0.7436030	-4.0567199
H	3.9918938	2.2610746	-2.9871191
H	2.7136789	-0.2798095	-4.1521435
O	2.7633252	1.5535021	-5.1254864
C	2.0700329	0.8661708	-6.1630446
H	1.8806477	1.5759308	-6.9735055
H	1.1063748	0.4895080	-5.8034004
H	2.6778300	0.0455934	-6.5593691
