29
-0.00082207 (energy)
C	-0.6371925	-0.9811725	-2.3577829
C	-0.1782671	-1.5264506	-1.2242322
H	-0.8347102	-1.5951973	-3.2298198
H	-0.8250512	0.0863687	-2.4398105
H	0.0092724	-2.5899025	-1.1417646
C	0.0912969	-0.6897373	-0.0353790
O	-0.0684945	0.5174676	0.0265427
O	0.5443034	-1.5035817	0.9503493
C	0.8545772	-0.8550946	2.1920668
C	2.2819946	-0.3412510	2.1723797
H	0.7448093	-1.6060819	2.9813101
H	0.1421691	-0.0514207	2.4115492
H	2.9807177	-1.1553826	1.9535168
H	2.5476918	0.1026224	3.1359280
H	2.4172397	0.4132019	1.3909471
C	4.8733303	1.7555126	-2.7717228
H	4.6736465	2.5606371	-3.4725190
H	5.0337710	0.7696566	-3.1923324
H	4.7400652	3.0236730	-1.1184903
C	4.9125754	2.0026628	-1.4575349
C	5.1640137	1.0486880	-0.4014925
C	5.4047479	-0.2597976	-0.5370792
H	5.1513245	1.4623338	0.6059219
H	5.4384849	-0.7656406	-1.4919047
O	5.6288237	-1.0579917	0.5548476
C	5.8648222	-2.4173183	0.1996838
H	6.0335441	-2.9846834	1.1195221
H	6.7582944	-2.5056813	-0.4278153
H	4.9944021	-2.8422172	-0.3118508
