29
-0.000790623 (energy)
C	1.9929208	-1.1925390	1.2385359
C	1.7739468	0.0675263	0.8420974
H	2.9126973	-1.4639654	1.7453168
H	1.2614104	-1.9779890	1.0664181
H	2.5022961	0.8505803	1.0130817
C	0.5203706	0.4378568	0.1510635
O	-0.3904022	-0.3284971	-0.1133337
O	0.5778307	1.7633510	-0.1299729
C	-0.5693613	2.3017122	-0.8028663
C	-0.4225632	2.1348360	-2.3037147
H	-0.6154964	3.3670076	-0.5539621
H	-1.4968218	1.8456600	-0.4375950
H	0.5069481	2.5964361	-2.6527982
H	-1.2642277	2.5947376	-2.8292003
H	-0.3752958	1.0763745	-2.5785827
C	5.8212561	1.6910542	-0.8912719
H	5.7982560	2.3798704	-1.7304488
H	5.8377043	2.1285305	0.1001461
H	5.8102869	0.0142141	-2.1351589
C	5.8282063	0.3705609	-1.1056596
C	5.8575261	-0.6716744	-0.1049595
C	5.8832294	-0.5144276	1.2228522
H	5.8582373	-1.6875936	-0.4974583
H	5.8848987	0.4503221	1.7106660
O	5.9096701	-1.5951599	2.0660287
C	5.9344087	-1.2171261	3.4393764
H	5.9545193	-2.1292541	4.0427757
H	5.0349656	-0.6501381	3.7027820
H	6.8339762	-0.6347189	3.6661314
