29
-0.000761542 (energy)
C	-0.4269087	-2.2239350	-1.3415348
C	-0.2340065	-0.9495127	-1.7041836
H	-0.5882647	-2.9955638	-2.0865457
H	-0.4280373	-2.5238094	-0.2966723
H	-0.2328804	-0.6499405	-2.7449319
C	-0.0142336	0.1026420	-0.6889023
O	0.0106786	-0.0770060	0.5168411
O	0.1467926	1.2808401	-1.3409283
C	0.3780685	2.4228209	-0.5036356
C	-0.9427685	3.0249771	-0.0623413
H	0.9327147	3.1520306	-1.1032662
H	1.0088267	2.1666376	0.3554942
H	-1.5600022	3.2764784	-0.9310731
H	-0.7780627	3.9308074	0.5279021
H	-1.5164937	2.3143344	0.5409444
C	4.5937021	-0.2719395	0.2009919
H	4.1300845	0.7100347	0.2009919
H	5.6770807	-0.3012063	0.2009913
H	2.7515660	-1.2546412	0.2009930
C	3.8346336	-1.3735420	0.2009925
C	4.2929488	-2.7441120	0.2009926
C	5.5604146	-3.1707286	0.2009921
H	3.5032796	-3.4941587	0.2009932
H	6.4143295	-2.5077533	0.2009915
O	5.8598709	-4.5086202	0.2009923
C	7.2630118	-4.7551991	0.2009916
H	7.4179224	-5.8380082	0.2009918
H	7.7305529	-4.3407747	1.1007213
H	7.7305520	-4.3407751	-0.6987287
