29
-0.00344486 (energy)
C	0.2860583	2.4825639	-0.8263783
C	-0.6752845	1.5632951	-0.9801400
H	0.1885126	3.4682201	-1.2684808
H	1.1883480	2.2720440	-0.2578553
H	-1.5744369	1.7722170	-1.5465130
C	-0.5425753	0.2195239	-0.3778169
O	0.4070610	-0.1646953	0.2834529
O	-1.6531762	-0.4898882	-0.6980014
C	-1.6980851	-1.8298163	-0.1868817
C	-1.0035174	-2.7794806	-1.1448257
H	-2.7546647	-2.1034383	-0.0990943
H	-1.2661780	-1.8880071	0.8189312
H	-1.4469352	-2.7105643	-2.1436032
H	-1.0835773	-3.8120348	-0.7934483
H	0.0564590	-2.5269871	-1.2488659
C	6.3192764	-4.7972265	1.6847106
H	6.8352748	-5.6950928	2.0115074
H	5.2358990	-4.8247720	1.6947357
H	8.1056240	-3.7816056	1.3150562
C	7.0177140	-3.7250300	1.2944637
C	6.4860135	-2.4622672	0.8348555
C	5.1973483	-2.1263184	0.7125794
H	7.2340026	-1.7183889	0.5641066
H	4.3805028	-2.7917579	0.9547789
O	4.8260403	-0.8861526	0.2611960
C	3.4116260	-0.7260254	0.2029136
H	3.1984351	0.2821305	-0.1640251
H	2.9671600	-0.8309011	1.1985575
H	2.9671610	-1.4463490	-0.4923725
