29
-0.00265315 (energy)
C	0.1211169	-0.7192010	-2.5290185
C	-0.4977440	0.2755482	-1.8806646
H	0.0270421	-0.8250836	-3.6043914
H	0.7330102	-1.4471195	-2.0023450
H	-1.1076411	1.0010646	-2.4046430
C	-0.3699142	0.4200803	-0.4147533
O	0.2775240	-0.3151605	0.3111639
O	-1.0980192	1.5009901	-0.0396327
C	-1.0841391	1.7973093	1.3641728
C	-2.1698958	1.0122710	2.0760648
H	-1.2785346	2.8699948	1.4666046
H	-0.0979433	1.6058850	1.8027663
H	-3.1479671	1.2152845	1.6276369
H	-2.2064169	1.2753459	3.1369614
H	-1.9970676	-0.0650741	1.9889706
C	6.0005724	2.2270453	4.7331131
H	6.4854522	2.5667651	5.6434407
H	4.9825308	1.8672273	4.8263240
H	7.6791895	2.6410523	3.5626386
C	6.6568888	2.2641626	3.5679590
C	6.1572538	1.8517239	2.2761486
C	4.9463048	1.3555889	2.0006059
H	6.8601333	1.9662021	1.4521324
H	4.1787213	1.2034233	2.7465068
O	4.5973894	1.0013501	0.7229515
C	3.2682749	0.4953502	0.6391402
H	3.0679410	0.2372427	-0.4047562
H	2.5428878	1.2545137	0.9511339
H	3.1583370	-0.4107269	1.2447604
