29
-0.00263745 (energy)
C	0.2936189	0.4833907	2.5705982
C	-0.7666999	0.4433880	1.7538967
H	0.1751668	0.7101116	3.6246640
H	1.2995875	0.2914269	2.2061249
H	-1.7692164	0.6346563	2.1162211
C	-0.6056026	0.1345781	0.3169520
O	0.4543465	-0.1009657	-0.2377896
O	-1.8351169	0.1667297	-0.2544314
C	-1.8697886	-0.1177678	-1.6603214
C	-1.6360753	1.1517247	-2.4576357
H	-2.8664419	-0.5132477	-1.8821629
H	-1.1474736	-0.8977669	-1.9276267
H	-2.3656910	1.9196662	-2.1804135
H	-1.7191625	0.9566566	-3.5305237
H	-0.6439250	1.5666873	-2.2537455
C	5.8570438	-2.1514649	-6.6859073
H	6.3921789	-2.5038365	-7.5626507
H	6.3899195	-2.1820926	-5.7426834
H	4.1381823	-1.7101518	-7.7858734
C	4.6003365	-1.7069759	-6.7991738
C	3.7565694	-1.2079016	-5.7373372
C	4.0711034	-1.0958092	-4.4423566
H	2.7609124	-0.8947707	-6.0484059
H	5.0311824	-1.3785850	-4.0337087
O	3.1715461	-0.6029456	-3.5326808
C	3.6974289	-0.5639439	-2.2092264
H	2.9245072	-0.1616868	-1.5479744
H	4.5713086	0.0944657	-2.1573924
H	3.9558595	-1.5707749	-1.8637661
