29
-0.00255177 (energy)
C	-0.1211169	0.7192006	-2.5290186
C	0.4977441	-0.2755485	-1.8806645
H	-0.0270421	0.8250830	-3.6043915
H	-0.7330103	1.4471192	-2.0023452
H	1.1076412	-1.0010649	-2.4046428
C	0.3699143	-0.4200804	-0.4147532
O	-0.2775240	0.3151605	0.3111639
O	1.0980192	-1.5009900	-0.0396325
C	1.0841392	-1.7973091	1.3641731
C	2.1698959	-1.0122705	2.0760650
H	1.2785348	-2.8699944	1.4666050
H	0.0979434	-1.6058847	1.8027665
H	3.1479671	-1.2152841	1.6276372
H	2.2064169	-1.2753452	3.1369616
H	1.9970675	0.0650745	1.9889706
C	-8.7587940	1.6829237	0.4591994
H	-9.8375993	1.7044683	0.3370135
H	-8.3835017	1.5063723	1.4604742
H	-8.4190376	2.0406437	-1.5695366
C	-7.9589493	1.8691371	-0.5968717
C	-6.5137907	1.8701132	-0.6024079
C	-5.7030936	1.6854217	0.4450320
H	-6.0567358	2.0417742	-1.5759482
H	-6.0570683	1.5080450	1.4509875
O	-4.3398516	1.7107047	0.3016449
C	-3.6561476	1.4936689	1.5325185
H	-2.5808778	1.5285144	1.3348994
H	-3.8986674	0.5076244	1.9433178
H	-3.8986674	2.2797368	2.2557883
