29
-0.00250614 (energy)
C	-0.0217699	1.0528627	2.4122313
C	0.2632202	1.5361522	1.1964643
H	0.0384276	1.6865463	3.2904735
H	-0.3203013	0.0176805	2.5569393
H	0.5608450	2.5673187	1.0514917
C	0.1814798	0.6725983	-0.0009159
O	-0.1361532	-0.5046093	0.0006871
O	0.5238772	1.4229699	-1.0774495
C	0.4944004	0.7409940	-2.3394747
C	1.8213779	0.0504576	-2.5929176
H	0.3218498	1.5002125	-3.1093769
H	-0.3417956	0.0341461	-2.3917432
H	2.6454518	0.7694129	-2.5387800
H	1.8300945	-0.4230387	-3.5787011
H	2.0166755	-0.7154223	-1.8356765
C	3.9215669	4.2562725	8.1243015
H	4.1272647	4.7232474	9.0828615
H	4.7191381	3.6679093	7.6858100
H	1.9828426	5.0275223	8.0488715
C	2.7296045	4.4194298	7.5392216
C	2.3006590	3.8690444	6.2736796
C	3.0123562	3.0936095	5.4486591
H	1.2840660	4.1266732	5.9798876
H	4.0280957	2.7821477	5.6485884
O	2.4824777	2.6357987	4.2699879
C	3.3977110	1.8274583	3.5361355
H	2.9031455	1.5039025	2.6157065
H	3.6751474	0.9361422	4.1092326
H	4.2905948	2.4005307	3.2637677
