29
-0.00215797 (energy)
C	-0.2936189	-2.4476052	-0.9224264
C	0.7666999	-1.6502576	-0.7412128
H	-0.1751668	-3.4462877	-1.3287395
H	-1.2995875	-2.1220032	-0.6700889
H	1.7692164	-1.9738642	-0.9924921
C	0.6056026	-0.2887676	-0.1875716
O	-0.4543465	0.2166446	0.1407235
O	1.8351169	0.2795182	-0.1200151
C	1.8697886	1.6146472	0.4042904
C	1.6360754	2.6202935	-0.7074636
H	2.8664419	1.7644441	0.8322845
H	1.1474736	1.7424462	1.2188566
H	2.3656911	2.4806344	-1.5118774
H	1.7191626	3.6430088	-0.3290540
H	0.6439251	2.4915584	-1.1515272
C	3.9589114	-7.5418379	-2.8578368
H	4.9296114	-7.9773405	-2.6403664
H	3.2415351	-8.1754037	-3.3662968
H	4.4718600	-5.7119857	-1.9931446
C	3.6933184	-6.2800296	-2.5014477
C	2.4599893	-5.5580756	-2.7163820
C	1.3520865	-6.0132945	-3.3111914
H	2.4547767	-4.5340171	-2.3456739
H	1.2563349	-7.0127233	-3.7120414
O	0.2433827	-5.2191301	-3.4515723
C	-0.8285923	-5.8875930	-4.1100802
H	-1.6696207	-5.1919801	-4.1826524
H	-1.1535358	-6.7614598	-3.5350808
H	-0.5380876	-6.1831273	-5.1240349
