29
-0.00215224 (energy)
C	-2.9264737	4.1003364	-0.8495465
C	-2.3473430	3.2250552	-0.0180610
H	-3.7478169	4.7249083	-0.5151913
H	-2.5945643	4.2121389	-1.8786238
H	-2.6775324	3.1129831	1.0072763
C	-1.2278475	2.3733519	-0.4735357
O	-0.7469907	2.3827748	-1.5939816
O	-0.8490461	1.5936898	0.5694670
C	0.2406406	0.6980855	0.3065154
C	-0.2792548	-0.6025772	-0.2765183
H	0.7313921	0.5012214	1.2653394
H	0.9881942	1.1605059	-0.3484049
H	-1.0230924	-1.0522469	0.3893856
H	0.5374027	-1.3145329	-0.4256268
H	-0.7741241	-0.4321478	-1.2378640
C	3.9589898	0.8435907	7.0809786
H	4.0202076	1.0098755	8.1523404
H	4.8386417	0.4334512	6.5987297
H	1.9971614	1.5508051	6.9797603
C	2.8360922	1.1416367	6.4176667
C	2.5950749	0.9810599	5.0018133
C	3.4470603	0.5049650	4.0875236
H	1.6056659	1.2873518	4.6650604
H	4.4501094	0.1751637	4.3195379
O	3.0898723	0.4042578	2.7677120
C	4.1349512	-0.1249490	1.9569372
H	3.7737919	-0.1733260	0.9255806
H	4.3996380	-1.1386385	2.2766719
H	5.0150858	0.5266025	1.9830449
