29
-0.00204777 (energy)
C	0.2657648	1.9211068	-1.7794863
C	-0.7656400	1.4709017	-1.0539539
H	0.1406933	2.7481953	-2.4699715
H	1.2540775	1.4754121	-1.7003802
H	-1.7506022	1.9143122	-1.1323020
C	-0.5955852	0.3433431	-0.1127744
O	0.4468311	-0.2575892	0.0846077
O	-1.7957153	0.1078127	0.4732558
C	-1.8159679	-0.9612498	1.4300018
C	-2.0712985	-2.2840404	0.7321662
H	-2.6324839	-0.7501240	2.1283308
H	-0.8903669	-0.9895196	2.0165623
H	-2.9991096	-2.2400756	0.1523741
H	-2.1473913	-3.0976130	1.4590454
H	-1.2666424	-2.5185992	0.0281506
C	1.9436934	-3.8910958	2.3996394
H	0.9239121	-4.1000786	2.0904686
H	2.3705710	-4.5449914	3.1511457
H	2.1093652	-2.2586538	1.1085724
C	2.6135250	-2.8671630	1.8587139
C	3.9668873	-2.4589726	2.1592238
C	4.8051108	-3.0261366	3.0333962
H	4.3218122	-1.5934122	1.6015671
H	4.5491864	-3.8874465	3.6345243
O	6.0713671	-2.5363767	3.2240744
C	6.8044254	-3.2780556	4.1947152
H	7.7968392	-2.8276991	4.2883462
H	6.9276188	-4.3190335	3.8768406
H	6.3121705	-3.2321242	5.1721676
