29
-0.0034105 (energy)
C	0.2058554	2.3854279	-1.0932571
C	-0.6722326	1.8293833	-0.2490691
H	0.0892501	3.4133715	-1.4191760
H	1.0573073	1.8286046	-1.4761948
H	-1.5208395	2.3834273	0.1327730
C	-0.5137315	0.4281081	0.1952631
O	0.3854213	-0.3211832	-0.1464940
O	-1.5397239	0.1405994	1.0342485
C	-1.5431147	-1.1897912	1.5715723
C	-2.2566924	-2.1357016	0.6239419
H	-2.0810095	-1.1485595	2.5244129
H	-0.5258689	-1.5341397	1.7911737
H	-3.2707912	-1.7789761	0.4159135
H	-2.3166130	-3.1406145	1.0512631
H	-1.7365838	-2.1952204	-0.3373448
C	4.6302930	-5.9066493	2.1654309
H	4.7883763	-6.9162063	2.5328797
H	3.6022256	-5.5843428	2.0481202
H	6.6785663	-5.5263988	2.0270325
C	5.6768572	-5.1235877	1.8804205
C	5.6368303	-3.7660935	1.3863330
C	4.5481566	-3.0362359	1.1206858
H	6.6104596	-3.3074756	1.2194104
H	3.5383727	-3.3990154	1.2527260
O	4.6506246	-1.7515251	0.6530893
C	3.3797915	-1.1464709	0.4328667
H	3.5463963	-0.1305959	0.0631186
H	2.8119554	-1.0836150	1.3674613
H	2.8119566	-1.6990632	-0.3234685
