29
-0.00176252 (energy)
C	-3.2864507	1.2988589	0.3532555
C	-1.9568427	1.1407831	0.3475869
H	-3.7342444	2.2291394	0.6857417
H	-3.9546979	0.5058421	0.0273202
H	-1.2904271	1.9303165	0.6722855
C	-1.3460763	-0.1272548	-0.1053702
O	-1.9613460	-1.1042719	-0.4972783
O	0.0000000	0.0000000	0.0000000
C	0.7617805	-1.1460635	-0.4060747
C	0.9172990	-2.1100207	0.7551935
H	1.7467114	-0.7819229	-0.7163144
H	0.3113815	-1.6366208	-1.2767547
H	1.3693784	-1.6057464	1.6155753
H	1.5463063	-2.9589691	0.4729165
H	-0.0553778	-2.4897601	1.0835610
C	5.7328987	1.2156984	5.7998044
H	6.7035987	1.6217846	6.0682255
H	5.0155224	1.0921419	6.6027184
H	6.2458474	1.0496178	3.7827598
C	5.4673058	0.8934362	4.5288518
C	4.2339768	0.3463204	4.0110884
C	3.1260740	0.0588096	4.7027242
H	4.2287642	0.1553337	2.9388737
H	3.0303223	0.2113777	5.7686799
O	2.0173703	-0.4598462	4.0851481
C	0.9453953	-0.6958995	4.9933078
H	0.1043670	-1.1065555	4.4271755
H	0.6204516	0.2389979	5.4625989
H	1.2359002	-1.4262429	5.7562254
