29
-0.00172445 (energy)
C	-0.4799111	0.2657912	-0.2988111
C	0.5941455	-0.2577378	0.3055047
H	-1.4755806	-0.1068542	-0.0837165
H	-0.3890968	1.0749513	-1.0190030
H	0.5045077	-1.0639877	1.0230199
C	1.9515669	0.2498263	0.0123977
O	2.2134644	1.1483102	-0.7691697
O	2.8309073	-0.4624001	0.7598682
C	4.2098438	-0.0974628	0.6048760
C	4.8242222	-0.8532733	-0.5584093
H	4.7201128	-0.3735237	1.5335050
H	4.3248776	0.9859959	0.4845675
H	4.7024783	-1.9329412	-0.4226854
H	5.8903503	-0.6267141	-0.6483293
H	4.3310600	-0.5931047	-1.5003385
C	1.5777471	-4.9693509	7.9961209
H	1.3987895	-5.3115912	9.0110397
H	1.6054015	-3.8973423	7.8392816
H	1.7087111	-6.9162389	7.2533939
C	1.7518110	-5.8553116	7.0089591
C	1.9976478	-5.5650379	5.6147495
C	2.0976430	-4.3580313	5.0476454
H	2.1104685	-6.4391264	4.9749149
H	2.0011733	-3.4306272	5.5947490
O	2.3345312	-4.2215376	3.7041866
C	2.4063211	-2.8582017	3.2970417
H	2.5962191	-2.8345493	2.2200774
H	3.2306969	-2.3442426	3.8031113
H	1.4585846	-2.3442435	3.4906399
