29
-0.00171504 (energy)
C	-0.5885931	-0.5734333	3.4550419
C	-0.0577545	-0.5404013	2.2262226
H	-0.0690835	-1.0624099	4.2720485
H	-1.5500403	-0.1147438	3.6715755
H	0.8999920	-0.9972680	2.0096673
C	-0.7657237	0.1258669	1.1122243
O	-1.8476890	0.6814784	1.1980036
O	0.0000000	0.0000000	0.0000000
C	-0.5354842	0.5989174	-1.1887902
C	-1.4544898	-0.3773190	-1.8989555
H	0.3142002	0.8412115	-1.8355250
H	-1.0481285	1.5415543	-0.9646895
H	-0.9277579	-1.3121960	-2.1168630
H	-1.8215777	0.0480880	-2.8372087
H	-2.3140770	-0.6347567	-1.2720880
C	5.6455118	2.3236866	5.1442350
H	6.1736018	2.5760713	6.0589138
H	5.2953124	3.1507344	4.5376724
H	5.8381653	0.2716858	5.4779193
C	5.4530929	1.0424324	4.8109548
C	4.7750519	0.5428766	3.6365531
C	4.2122626	1.2650574	2.6617740
H	4.7293601	-0.5423867	3.5574119
H	4.2038938	2.3459954	2.6472794
O	3.5966475	0.6619828	1.5954968
C	3.0616725	1.6026282	0.6688936
H	2.5907772	1.0462984	-0.1467212
H	3.8563437	2.2266340	0.2458450
H	2.2979743	2.2266334	1.1455700
