29
-0.0016868 (energy)
C	-0.3487695	-0.4896033	0.1699887
C	0.4538254	0.5125911	-0.2099134
H	-1.3579595	-0.2931126	0.5155535
H	-0.0171118	-1.5245030	0.1445045
H	0.1241887	1.5439033	-0.1846813
C	1.8296327	0.2451552	-0.6808254
O	2.3430476	-0.8576307	-0.7643691
O	2.4002924	1.4355612	-0.9914684
C	3.7490793	1.3655383	-1.4757600
C	4.7242733	1.3769407	-0.3135165
H	3.9109656	2.2501071	-2.1004735
H	3.8983237	0.4881816	-2.1157294
H	4.5634511	2.2592297	0.3146776
H	5.7568604	1.3834569	-0.6737457
H	4.5830111	0.5002734	0.3265044
C	3.4965979	-3.6695175	1.3145606
H	3.3567827	-2.6016553	1.1755049
H	3.6722523	-4.0118520	2.3277331
H	3.2667701	-4.0686802	-0.7218617
C	3.4483518	-4.4961125	0.2637866
C	3.6132297	-5.9317567	0.2797851
C	3.8448962	-6.7051751	1.3459115
H	3.5366343	-6.4153493	-0.6930556
H	3.9375986	-6.3229864	2.3529096
O	3.9821245	-8.0636429	1.2219696
C	4.2235389	-8.7053418	2.4707878
H	4.3205818	-9.7794158	2.2879748
H	3.3848054	-8.5476333	3.1574537
H	5.1569177	-8.3467808	2.9180862
