29
-0.00168462 (energy)
C	-0.5885931	2.6601334	-2.2781200
C	-0.0577545	1.8449596	-1.3580223
H	-0.0690835	3.5598729	-2.5896753
H	-1.5500403	2.4479419	-2.7388343
H	0.8999920	2.0557408	-0.8984630
C	-0.7657237	0.6185042	-0.9329190
O	-1.8476890	0.2480191	-1.3557699
O	0.0000000	0.0000000	0.0000000
C	-0.5354842	-1.2229369	0.5256896
C	-1.4544898	-0.9315818	1.6972203
H	0.3142002	-1.8242580	0.8653735
H	-1.0481285	-1.8009896	-0.2518969
H	-0.9277579	-0.3554927	2.4650745
H	-1.8215777	-1.8605600	2.1425177
H	-2.3140770	-0.3314304	1.3824897
C	3.5752603	-2.4982611	-2.2207462
H	2.9991818	-3.2034165	-2.8124418
H	4.6545421	-2.5737729	-2.2841079
H	1.8617288	-1.5844568	-1.4539741
C	2.9512618	-1.5917551	-1.4600979
C	3.5678568	-0.5905125	-0.6199557
C	4.8767567	-0.3803705	-0.4436254
H	2.8720526	0.0513233	-0.0813919
H	5.6466174	-0.9617684	-0.9314759
O	5.3317491	0.6103504	0.3876879
C	6.7541685	0.6712913	0.4388236
H	7.0355698	1.4810138	1.1182613
H	7.1696285	0.8921742	-0.5503475
H	7.1696282	-0.2644897	0.8281114
