29
-0.00163522 (energy)
C	-0.5885931	-0.6428431	-3.4428031
C	-0.0577545	-0.2536020	-2.2767930
H	-0.0690835	-0.4627881	-4.3777780
H	-1.5500403	-1.1479291	-3.4893971
H	0.8999920	0.2497786	-2.2295553
C	-0.7657237	-0.4986794	-1.0020999
O	-1.8476890	-1.0501216	-0.8926758
O	0.0000000	0.0000000	0.0000000
C	-0.5354842	-0.1562080	1.3219392
C	-1.4544898	1.0040450	1.6553837
H	0.3142002	-0.1626936	2.0125406
H	-1.0481285	-1.1186439	1.4337543
H	-0.9277579	1.9570708	1.5404030
H	-1.8215777	0.9251947	2.6825511
H	-2.3140770	1.0315560	0.9782720
C	3.0196655	-1.7858891	0.9640031
H	2.5770746	-1.0488984	0.3005482
H	2.5916337	-2.7813583	0.9441134
H	4.4139119	-0.4244389	1.7134683
C	4.0438654	-1.4483790	1.7557192
C	4.7394751	-2.3052024	2.6887229
C	4.4919841	-3.5956929	2.9374264
H	5.5493760	-1.8270630	3.2378957
H	3.7117830	-4.1602400	2.4462239
O	5.2320340	-4.2974415	3.8536703
C	4.8123624	-5.6536675	3.9725508
H	5.4473904	-6.1420233	4.7173466
H	4.9303213	-6.1820059	3.0202904
H	3.7736576	-5.7105446	4.3156180
