29
-0.00149803 (energy)
C	0.1211169	1.0746818	-2.3996340
C	-0.4977440	1.4199501	-1.2635537
H	0.0270421	1.6848074	-3.2914775
H	0.7330102	0.1785247	-2.4640758
H	-1.1076411	2.3125347	-1.1985915
C	-0.3699142	0.5883985	-0.0476970
O	0.2775240	-0.4414393	0.0357841
O	-1.0980192	1.1753006	0.9344574
C	-1.0841391	0.4999455	2.2003051
C	-2.1698958	-0.5590241	2.2410331
H	-1.2785346	1.2558283	2.9682813
H	-0.0979433	0.0713835	2.4132421
H	-3.1479671	-0.1152629	2.0280120
H	-2.2064169	-1.0394283	3.2228284
H	-1.9970676	-1.3283353	1.4818111
C	3.7650488	-0.4958499	1.5536714
H	2.9593639	-0.4166063	0.8299265
H	3.5701119	-1.0891623	2.4394173
H	5.0434113	0.6990057	0.4146906
C	4.9307435	0.1220136	1.3320558
C	6.0939044	0.1157092	2.1896874
C	6.2257020	-0.5077277	3.3654539
H	6.9434432	0.6871437	1.8183466
H	5.4428668	-1.0989722	3.8196630
O	7.3914127	-0.4321472	4.0831127
C	7.3303194	-1.1629827	5.3044860
H	8.2916778	-1.0534941	5.8146577
H	7.1622566	-2.2281682	5.1121568
H	6.5468088	-0.7637794	5.9576211
