29
-0.00318118 (energy)
C	3.6138003	3.1876504	1.6964874
C	2.7232846	2.2089552	1.9014638
H	4.0197361	3.7530497	2.5283694
H	3.9558495	3.4450208	0.6972744
H	2.3819120	1.9520406	2.8966328
C	2.1695524	1.4381563	0.7677197
O	2.4537987	1.6095970	-0.4055336
O	1.3008142	0.5264993	1.2711018
C	0.6664052	-0.3213933	0.3029743
C	-0.5856120	0.3446244	-0.2362998
H	0.3967269	-1.2491699	0.8181831
H	1.3566913	-0.5910356	-0.5047310
H	-1.2647648	0.6061836	0.5817855
H	-1.1087894	-0.3181869	-0.9312893
H	-0.3418549	1.2756007	-0.7578293
C	-0.2115363	1.0973170	-8.5539330
H	-0.7070531	1.1733527	-9.5172066
H	0.6067160	1.7835994	-8.3694195
H	-1.4480568	-0.4633657	-7.9258768
C	-0.6165986	0.1885326	-7.6596463
C	-0.0668002	-0.0391163	-6.3426753
C	0.9493210	0.6141373	-5.7688909
H	-0.5475619	-0.8335268	-5.7735288
H	1.4914011	1.4167005	-6.2492538
O	1.3748804	0.2966828	-4.5048696
C	2.4659302	1.1059411	-4.0755483
H	2.7446567	0.7927142	-3.0652645
H	2.1766872	2.1618722	-4.0408546
H	3.3333509	0.9680915	-4.7300837
