29
-0.00144728 (energy)
C	3.5047602	0.3043061	-0.4864525
C	2.2024302	0.5557312	-0.3031501
H	4.2191427	1.1147323	-0.5831743
H	3.8849577	-0.7124636	-0.5438357
H	1.8228540	1.5684300	-0.2460125
C	1.2282936	-0.5487347	-0.1714735
O	1.5006510	-1.7364148	-0.2156160
O	0.0000000	0.0000000	0.0000000
C	-1.0777440	-0.9349310	0.1517876
C	-1.6175366	-1.3374011	-1.2078392
H	-1.8621995	-0.4286673	0.7238562
H	-0.7680281	-1.8097665	0.7351644
H	-1.9235997	-0.4534993	-1.7770214
H	-2.4777916	-2.0042803	-1.1016444
H	-0.8509269	-1.8475265	-1.7996238
C	-1.7492803	2.3167006	1.9904627
H	-0.7295671	1.9749661	1.8400736
H	-2.2424703	1.9980511	2.9013919
H	-1.7719024	3.3676936	0.1865587
C	-2.3397253	3.0933439	1.0750869
C	-3.6812885	3.6283494	1.1250084
C	-4.5855790	3.4490607	2.0938145
H	-3.9652449	4.2410268	0.2705245
H	-4.4020516	2.8595715	2.9812418
O	-5.8311457	4.0167914	2.0171748
C	-6.6439657	3.7070017	3.1454299
H	-7.6142124	4.1933755	3.0092878
H	-6.1928557	4.0910766	4.0667560
H	-6.8083038	2.6266888	3.2212904
