29
-0.00139377 (energy)
C	0.2058554	-0.2459257	2.6124697
C	-0.6722326	-0.6989916	1.7088269
H	0.0892501	-0.4776436	3.6656544
H	1.0573073	0.3641197	2.3217154
H	-1.5208395	-1.3066986	1.9977220
C	-0.5137315	-0.3831569	0.2731209
O	0.3854213	0.2874591	-0.2049058
O	-1.5397239	-0.9659852	-0.3953616
C	-1.5431147	-0.7661258	-1.8161756
C	-2.2566924	0.5275015	-2.1615428
H	-2.0810095	-1.6119258	-2.2568882
H	-0.5258689	-0.7841319	-2.2241908
H	-3.2707912	0.5292965	-1.7485952
H	-2.3166130	0.6598869	-3.2454834
H	-1.7365838	1.3897595	-1.7324442
C	2.1007991	2.4522946	-3.5841135
H	1.5581848	3.3711420	-3.3828588
H	2.3279357	2.2357235	-4.6214523
H	2.1889516	1.9406723	-1.5618277
C	2.4572092	1.6477699	-2.5764306
C	3.1773182	0.3986974	-2.6753039
C	3.6233274	-0.1890582	-3.7906919
H	3.3661700	-0.1008174	-1.7261108
H	3.4871526	0.2248901	-4.7800403
O	4.2970883	-1.3821828	-3.7445628
C	4.6871402	-1.8405080	-5.0358424
H	5.2151925	-2.7906829	-4.9141820
H	5.3681414	-1.1270029	-5.5122913
H	3.8097720	-2.0130591	-5.6685263
