29
-0.00131465 (energy)
C	0.0802029	-2.1861336	1.4636398
C	-0.0030518	-0.8820495	1.7557205
H	0.0992624	-2.9320122	2.2509071
H	0.1310407	-2.5364744	0.4358555
H	-0.0535974	-0.5322151	2.7794211
C	-0.0288437	0.1349973	0.6828382
O	0.0216397	-0.1012802	-0.5122917
O	-0.1134522	1.3546947	1.2696925
C	-0.1549704	2.4710764	0.3693393
C	1.2531749	2.9107595	0.0147286
H	-0.6736550	3.2827738	0.8899633
H	-0.7403090	2.2386900	-0.5278591
H	1.8238559	3.1403723	0.9205578
H	1.2330356	3.7980503	-0.6242967
H	1.7930427	2.1153531	-0.5087204
C	0.8492055	-0.4899698	5.7952172
H	0.4591738	0.4551550	5.4293910
H	0.3704218	-0.9099861	6.6720971
H	2.2969030	-0.5909260	4.2941683
C	1.8732675	-1.0815947	5.1699252
C	2.5041994	-2.3315749	5.5276812
C	2.1848503	-3.1327431	6.5497462
H	3.3265535	-2.6344341	4.8810302
H	1.3864716	-2.9221643	7.2475679
O	2.8685674	-4.2987235	6.7791988
C	2.3765259	-5.0074575	7.9128640
H	2.9699831	-5.9190931	8.0277636
H	1.3294976	-5.2945882	7.7674564
H	2.4861622	-4.4085320	8.8234165
