29
-0.00129742 (energy)
C	-0.5531683	-0.0318725	0.2885076
C	0.6628029	0.0562346	-0.2651429
H	-1.4152249	-0.3155089	-0.3055436
H	-0.7141509	0.1765370	1.3431705
H	0.8239755	-0.1511032	-1.3158266
C	1.8381133	0.4430481	0.5442685
O	1.8169046	0.7074175	1.7343820
O	2.9200729	0.4513305	-0.2733579
C	4.1628389	0.8034326	0.3513215
C	4.3422988	2.3099945	0.3484006
H	4.9599448	0.3368876	-0.2368059
H	4.2297875	0.3936829	1.3658228
H	4.2743172	2.7033163	-0.6712080
H	5.3133770	2.5856768	0.7691738
H	3.5567191	2.8003763	0.9319395
C	4.0563730	-3.0832487	-7.8686301
H	4.1860294	-3.3258097	-8.9191384
H	4.1199358	-3.9054805	-7.1654512
H	3.7812399	-1.0520940	-8.2659716
C	3.8302803	-1.8191250	-7.4936818
C	3.6374147	-1.3341820	-6.1460364
C	3.6482914	-2.0555386	-5.0199825
H	3.4662747	-0.2618854	-6.0621387
H	3.8093934	-3.1242703	-4.9961980
O	3.4506984	-1.4674351	-3.7973954
C	3.4992585	-2.4044012	-2.7253218
H	3.3338255	-1.8606057	-1.7907678
H	4.4818482	-2.8857885	-2.6739456
H	2.7097358	-3.1563960	-2.8301813
