29
-0.00125617 (energy)
C	5.0880427	-0.1246239	-0.4416181
C	3.9269357	0.5422384	-0.4432610
H	5.9811104	0.3131075	-0.8744107
H	5.1721973	-1.1186529	-0.0097754
H	3.8422535	1.5325374	-0.8734221
C	2.7092930	-0.0542133	0.1464148
O	2.6453979	-1.1560009	0.6647706
O	1.6980923	0.8375569	0.0000000
C	0.4289599	0.4230801	0.5255280
C	-0.3327079	-0.3769538	-0.5145447
H	-0.1285066	1.3331523	0.7703456
H	0.5480564	-0.1415921	1.4574888
H	-0.4444394	0.2007492	-1.4379625
H	-1.3258178	-0.6474268	-0.1449220
H	0.2046514	-1.2940998	-0.7757260
C	-1.8491584	-2.1843966	8.7737252
H	-2.3918971	-2.1535197	9.7137761
H	-1.5910075	-1.2315077	8.3265937
H	-1.8277439	-4.2718194	8.7366364
C	-1.5296966	-3.3597651	8.2204023
C	-0.8148871	-3.5712009	6.9823162
C	-0.3379151	-2.6339389	6.1561754
H	-0.6591029	-4.6147877	6.7124913
H	-0.4403403	-1.5724570	6.3335799
O	0.3263836	-2.9722551	5.0055768
C	0.7537738	-1.8325383	4.2653141
H	1.2716324	-2.1843381	3.3683570
H	1.4539512	-1.2280789	4.8520305
H	-0.1044182	-1.2280799	3.9523055
