29
-0.00118395 (energy)
C	-0.4987335	0.3083194	-0.2155264
C	0.5616476	-0.4010520	0.1909976
H	-0.8102909	1.1986989	0.3198655
H	-1.0770308	0.0167507	-1.0885806
H	1.1382150	-0.1112992	1.0607764
C	0.9865202	-1.6149434	-0.5384383
O	0.4406118	-2.0671342	-1.5305162
O	2.0735188	-2.1205246	0.0956278
C	2.6287599	-3.3095242	-0.4845920
C	1.9285145	-4.5375596	0.0663424
H	3.6881108	-3.3353935	-0.2088338
H	2.5820867	-3.2787327	-1.5793354
H	1.9851828	-4.5543794	1.1597001
H	2.3837055	-5.4517620	-0.3249104
H	0.8661987	-4.5355888	-0.1974923
C	0.2838101	3.0888097	2.6898305
H	1.0755999	2.4923322	2.2465498
H	0.1544387	3.0098190	3.7629518
H	-0.2805083	3.8943727	0.8481517
C	-0.4779378	3.8736850	1.9194903
C	-1.5643940	4.7232850	2.3511241
C	-2.0138108	4.8859730	3.6001350
H	-2.0560619	5.2823674	1.5562423
H	-1.5946388	4.3776868	4.4572505
O	-3.0597332	5.7287001	3.8748810
C	-3.3858046	5.7620628	5.2613044
H	-4.2236629	6.4520276	5.3970052
H	-2.5388952	6.1290894	5.8511279
H	-3.6955595	4.7715729	5.6117604
