29
-0.00310479 (energy)
C	3.6138003	3.1876504	1.6964874
C	2.7232846	2.2089552	1.9014638
H	4.0197361	3.7530497	2.5283694
H	3.9558495	3.4450208	0.6972744
H	2.3819120	1.9520406	2.8966328
C	2.1695524	1.4381563	0.7677197
O	2.4537987	1.6095970	-0.4055336
O	1.3008142	0.5264993	1.2711018
C	0.6664052	-0.3213933	0.3029743
C	-0.5856120	0.3446244	-0.2362998
H	0.3967269	-1.2491699	0.8181831
H	1.3566913	-0.5910356	-0.5047310
H	-1.2647648	0.6061836	0.5817855
H	-1.1087894	-0.3181869	-0.9312893
H	-0.3418549	1.2756007	-0.7578293
C	5.7911482	5.4489881	-6.6135636
H	5.9122470	6.0741624	-7.4931695
H	5.0036025	4.7051979	-6.6469385
H	7.3602173	6.3868736	-5.6048215
C	6.5928633	5.6149207	-5.5555314
C	6.5622010	4.8703313	-4.3173224
C	5.7282282	3.8759500	-3.9945745
H	7.3080447	5.1682962	-3.5817399
H	4.9546885	3.5068644	-4.6534518
O	5.8067234	3.2494105	-2.7776461
C	4.8332083	2.2200330	-2.6284625
H	4.9608351	1.7722411	-1.6386813
H	4.9765558	1.4373348	-3.3812512
H	3.8198924	2.6311156	-2.6920214
