29
-0.000607362 (energy)
C	-0.5531683	-0.2098649	0.2005224
C	0.6628029	0.2135088	-0.1669643
H	-1.4152249	-0.0452942	-0.4368652
H	-0.7141509	-0.7281382	1.1424041
H	0.8239755	0.7300452	-1.1051089
C	1.8381133	-0.0104545	0.7017196
O	1.8169046	-0.5729260	1.7833329
O	2.9200729	0.5214503	0.0807053
C	4.1628389	0.3896399	0.7855644
C	4.3422988	1.5456109	1.7517262
H	4.9599448	0.4102868	0.0351433
H	4.2297875	-0.5763554	1.2993354
H	4.2743172	2.5023046	1.2234830
H	5.3133770	1.4863279	2.2512623
H	3.5567191	1.5461736	2.5139542
C	2.9569504	6.1681612	-1.1832534
H	2.7685025	6.4973817	-0.1657488
H	3.0358339	6.9397821	-1.9401843
H	2.9875660	4.1538366	-0.6348674
C	3.0807306	4.8642608	-1.4557150
C	3.3308219	4.2668411	-2.7476357
C	3.4857191	4.9026785	-3.9139070
H	3.3964097	3.1797138	-2.7477905
H	3.4384258	5.9775180	-4.0196921
O	3.7197139	4.2114229	-5.0745275
C	3.8551772	5.0688488	-6.2041629
H	4.0385679	4.4454951	-7.0840895
H	4.7071379	5.7457692	-6.0784751
H	2.9350256	5.6388972	-6.3721018
