29
-0.000369598 (energy)
C	-4.9322384	1.2834542	-0.3528541
C	-3.8417166	1.0066443	0.3731047
H	-5.9194713	1.2597587	0.0958082
H	-4.8636190	1.5388225	-1.4072459
H	-3.9092652	0.7520068	1.4235802
C	-2.4958258	1.0386358	-0.2381892
O	-2.2584959	1.3054861	-1.4040265
O	-1.5956848	0.7173987	0.7239808
C	-0.2233493	0.7042834	0.3054226
C	0.1366585	-0.6536896	-0.2675058
H	0.3842304	0.9011060	1.1948290
H	-0.0165139	1.5087957	-0.4098178
H	-0.0741758	-1.4455525	0.4587360
H	1.1962949	-0.6931051	-0.5352013
H	-0.4576234	-0.8736562	-1.1600142
C	4.0102455	-2.7965251	-3.6161225
H	4.1986934	-3.8423202	-3.3924835
H	3.9313621	-2.5268143	-4.6628313
H	3.9796300	-2.2642789	-1.5974734
C	3.8864654	-1.9086162	-2.6231426
C	3.6363743	-0.4910702	-2.7517224
C	3.4814772	0.2010316	-3.8855094
H	3.5707865	0.0526275	-1.8103200
H	3.5287704	-0.2447756	-4.8692402
O	3.2474826	1.5517863	-3.8671749
C	3.1120193	2.1013662	-5.1745452
H	2.9286287	3.1750819	-5.0746684
H	2.2600586	1.6540572	-5.6979316
H	4.0321709	1.9617812	-5.7521911
