29
-0.00294492 (energy)
C	0.2860583	-0.5256176	2.5631525
C	-0.6752845	0.0671785	1.8439233
H	0.1885126	-0.6355737	3.6378071
H	1.1883480	-0.9127129	2.0965754
H	-1.5744369	0.4532109	2.3080415
C	-0.5425753	0.2174371	0.3790218
O	0.4070610	-0.1631297	-0.2843568
O	-1.6531762	0.8494310	-0.0752548
C	-1.6980851	1.0767526	-1.4912265
C	-1.0035174	2.3811886	-1.8346878
H	-2.7546647	1.1375374	-1.7720838
H	-1.2661780	0.2347884	-2.0445277
H	-1.4469352	3.2116971	-1.2756157
H	-1.0835773	2.5931640	-2.9045946
H	0.0564590	2.3450433	-1.5640019
C	4.8650119	1.1358520	-7.3326950
H	5.1745304	1.3165973	-8.3577530
H	3.7985684	1.1023314	-7.1425887
H	6.8347497	1.0156320	-6.6508973
C	5.7821913	0.9667344	-6.3735839
C	5.5367783	0.7194282	-4.9710408
C	4.3485624	0.6128625	-4.3666752
H	6.4309519	0.6114582	-4.3587143
H	3.4040741	0.7041973	-4.8846586
O	4.2552250	0.3753439	-3.0196411
C	2.9056275	0.2961120	-2.5702922
H	2.9165279	0.1061790	-1.4931295
H	2.3807050	-0.5311136	-3.0602003
H	2.3807055	1.2409987	-2.7477289
