29
-0.00293191 (energy)
C	-0.5597053	0.2018124	-0.1903928
C	0.6515165	-0.2569360	0.1492679
H	-1.1841722	0.7124463	0.5347156
H	-0.9530679	0.0780535	-1.1961827
H	1.0440598	-0.1341526	1.1511341
C	1.5029561	-0.9532415	-0.8388288
O	1.2011994	-1.1682929	-2.0004686
O	2.6570346	-1.3029752	-0.2183393
C	3.6137343	-1.9909436	-1.0369314
C	3.3366300	-3.4825949	-1.0254018
H	4.6015342	-1.7969603	-0.6061674
H	3.6245226	-1.5930646	-2.0582861
H	3.3306104	-3.8646165	0.0007310
H	4.0955321	-4.0224514	-1.5986962
H	2.3533854	-3.7028708	-1.4529950
C	0.2395196	-0.0165238	-9.0389415
H	-0.1861660	-0.3180131	-9.9913649
H	0.1310220	-0.7101834	-8.2133323
H	0.9268091	1.8001733	-9.8047173
C	0.8619979	1.1620389	-8.9239467
C	1.4775279	1.7068478	-7.7353252
C	1.5416793	1.1374917	-6.5269423
H	1.9322680	2.6885380	-7.8603992
H	1.1220633	0.1673348	-6.3001716
O	2.1592945	1.7664939	-5.4769252
C	2.1203962	0.9968894	-4.2786759
H	2.6301653	1.5634169	-3.4940391
H	2.6447893	0.0443676	-4.4112275
H	1.0864202	0.8235532	-3.9613654
