29
-0.00285643 (energy)
C	0.2657648	2.6154849	-0.1283019
C	-0.7656400	1.8042446	0.1381017
H	0.1406933	3.6929068	-0.1256021
H	1.2540776	2.2232146	-0.3541901
H	-1.7506022	2.1942779	0.3631023
C	-0.5955853	0.3355060	0.1343064
O	0.4468311	-0.2517096	-0.1007618
O	-1.7957153	-0.2216136	0.4318354
C	-1.8159680	-1.6555475	0.4775653
C	-2.0712984	-2.2203038	-0.9072812
H	-2.6324840	-1.9426930	1.1482253
H	-0.8903670	-2.0542372	0.9087254
H	-2.9991095	-1.8139416	-1.3231678
H	-2.1473912	-3.3107655	-0.8734138
H	-1.2666422	-1.9474538	-1.5973599
C	8.8310475	-2.4372848	2.1303140
H	9.8235321	-2.6896695	2.4915490
H	8.1728885	-3.2643325	1.8907634
H	9.1931165	-0.3852840	2.2620969
C	8.4694175	-1.1560306	1.9986917
C	7.1951171	-0.6564747	1.5348842
C	6.1374198	-1.3786555	1.1499135
H	7.1092440	0.4287886	1.5036292
H	6.1216921	-2.4595935	1.1441888
O	4.9804414	-0.7755809	0.7288078
C	3.9750180	-1.7162263	0.3628632
H	3.0900241	-1.1598964	0.0407518
H	3.6963894	-2.3402320	1.2189232
H	4.3118378	-2.3402316	-0.4720066
