29
-0.00284698 (energy)
C	0.2860583	-0.5256176	2.5631525
C	-0.6752845	0.0671785	1.8439233
H	0.1885126	-0.6355737	3.6378071
H	1.1883480	-0.9127129	2.0965754
H	-1.5744369	0.4532109	2.3080415
C	-0.5425753	0.2174371	0.3790218
O	0.4070610	-0.1631297	-0.2843568
O	-1.6531762	0.8494310	-0.0752548
C	-1.6980851	1.0767526	-1.4912265
C	-1.0035174	2.3811886	-1.8346878
H	-2.7546647	1.1375374	-1.7720838
H	-1.2661780	0.2347884	-2.0445277
H	-1.4469352	3.2116971	-1.2756157
H	-1.0835773	2.5931640	-2.9045946
H	0.0564590	2.3450433	-1.5640019
C	9.1608526	0.3972003	-2.3982030
H	10.2170326	0.4410263	-2.6467535
H	8.4604542	0.5408159	-3.2126860
H	9.5461585	0.0408734	-0.3773769
C	8.7760140	0.1747125	-1.1364140
C	7.4199318	0.0879656	-0.6444475
C	6.2943537	0.2133713	-1.3556566
H	7.3285477	-0.1004887	0.4243282
H	6.2776165	0.4010745	-2.4201726
O	5.0631231	0.1086485	-0.7617440
C	3.9931736	0.2719903	-1.6880988
H	3.0513829	0.1753846	-1.1402208
H	4.0241382	-0.5057131	-2.4588609
H	4.0241385	1.2663991	-2.1463892
