24
-0.018518 (energy)
C	-1.3962124	-1.8949202	0.0164566
N	-1.3658530	-2.3848157	1.0077001
H	-0.7951658	-2.0176580	1.7209762
H	-1.9095162	-3.1880094	1.1766952
N	-2.2106162	-2.4419494	-0.9582547
H	-2.7384223	-3.2801890	-0.7370688
C	-1.6337771	-0.7682401	-2.5357577
C	-2.3241785	-1.8805428	-2.2185203
H	-2.9907392	-2.3911428	-2.9054356
H	-1.6746353	-0.2777789	-3.4978059
C	-0.0003282	0.8797633	-1.5519256
N	-0.8133249	-0.2212688	-1.5465065
H	0.1099379	1.5180486	-2.4147679
C	0.5605142	0.9224629	-0.2917735
N	0.1194596	-0.1185425	0.4934485
C	-0.6999143	-0.7841329	-0.2840427
C	4.9082951	1.2707134	-0.3981410
H	5.8608816	1.7745575	-0.2106262
H	4.5631339	0.8228463	0.5370711
H	4.1890443	2.0088623	-0.7614282
C	5.1064417	0.2032576	-1.4309666
O	6.1691338	-0.0337055	-1.9819181
O	3.9728342	-0.4816488	-1.6997750
H	3.2020086	-0.1797207	-1.1832823
