11
-268.225 (energy)
C	-0.4020275	1.2581103	0.4141294
H	-0.7519348	1.8926545	-0.3914751
C	-0.3546282	1.6339084	1.6925799
H	-0.6783923	2.6292283	1.9808314
H	0.0005849	0.9769329	2.4779393
O	-0.0180982	0.0316225	-0.0446941
H	0.2872317	-0.5018717	0.7093275
C	3.7339452	0.2155659	-1.3775643
H	4.1315803	0.9093672	-2.1353620
H	2.6470070	0.0403959	-1.4180197
O	4.4521732	-0.3248476	-0.5457947
