24
-0.0130542 (energy)
C	-1.6084435	-1.6256567	0.5572723
N	-2.2925880	-1.2372202	1.3347981
H	-2.1633410	-0.3304555	1.6958026
H	-3.0307658	-1.7982488	1.6658414
N	-1.8241835	-2.9042562	0.0764437
H	-2.5899937	-3.4466421	0.4630967
C	-0.0068136	-2.7598084	-1.4397565
C	-1.0290270	-3.4599155	-0.9111352
H	-1.2869659	-4.4692022	-1.2139158
H	0.6525878	-3.1304339	-2.2114980
C	1.1386975	-0.5212494	-1.2704816
N	0.2051757	-1.4692495	-0.9493938
H	1.8980722	-0.6820238	-2.0198582
C	0.8550208	0.5569176	-0.4571956
N	-0.2255946	0.3051751	0.3574766
C	-0.5917694	-0.9130333	0.0400480
C	-2.5179051	3.2065904	1.1659585
H	-2.5756067	2.7043275	2.1359297
H	-2.6166960	4.2830463	1.3266627
H	-1.5538840	2.9712804	0.7082952
C	-3.6298337	2.7189337	0.2877452
O	-4.4470103	1.8741534	0.6157426
O	-3.6378631	3.3142323	-0.9255048
H	-2.9233128	3.9678924	-1.0448521
