24
-0.0121203 (energy)
C	-0.9762520	0.0476899	1.0257682
N	-0.6986754	0.6247236	1.9276919
H	-1.3311943	0.6991295	2.6784481
H	0.1809015	1.0639138	1.9797068
N	-0.0595144	-0.0325355	-0.0065653
H	0.8269133	0.4520592	0.0912212
C	-1.4860906	-1.4025511	-1.3144258
C	-0.3170224	-0.7511072	-1.1614193
H	0.4712890	-0.7470218	-1.9066821
H	-1.7530571	-1.9810873	-2.1872277
C	-3.6576402	-1.8526678	-0.1170273
N	-2.4071445	-1.3171538	-0.2678580
H	-4.1227081	-2.4676948	-0.8716910
C	-4.0871182	-1.4268998	1.1233844
N	-3.1406069	-0.6441982	1.7449062
C	-2.1486472	-0.5970949	0.8889425
C	4.5581070	-1.2130534	3.3150135
H	3.6897742	-1.8774759	3.3463573
H	4.8147070	-0.9295592	4.3387959
H	5.3873136	-1.7450764	2.8422229
C	4.2187228	0.0097706	2.5181619
O	3.1423297	0.2025583	1.9766597
O	5.2399372	0.8926205	2.4539929
H	6.0383497	0.6022293	2.9338968
