11
-268.225 (energy)
C	0.0601361	1.3816630	0.0579797
H	0.9687650	1.7978331	-0.3606801
C	-0.9216438	2.1138675	0.5851337
H	-0.8399786	3.1960381	0.6136181
H	-1.8202094	1.6695036	0.9970844
O	0.0492178	0.0194822	-0.0228724
H	-0.7811213	-0.3091960	0.3630016
C	3.2220451	-1.8318807	-1.5505010
H	3.5825036	-2.1447243	-0.5575611
H	2.2488091	-1.3156929	-1.5613614
O	3.8605368	-2.0437519	-2.5738181
