24
-0.0120498 (energy)
C	-0.0181753	-0.5562251	-0.3690947
N	0.0119295	0.3650888	0.2422623
H	0.8378996	0.8989007	0.2877564
H	-0.7872421	0.6513057	0.7409142
N	-1.1975100	-1.2775653	-0.4064370
H	-1.9872832	-0.9472789	0.1388313
C	-0.2944875	-2.8879971	-1.8942614
C	-1.3283927	-2.4298536	-1.1623765
H	-2.2969483	-2.9165562	-1.1189190
H	-0.3263905	-3.7783331	-2.5058513
C	2.0999112	-2.3496020	-2.4678307
N	0.8933974	-2.1544696	-1.8517848
H	2.2892877	-3.1824722	-3.1270174
C	2.8944803	-1.3019860	-2.0488894
N	2.2165810	-0.4643891	-1.1923389
C	1.0239866	-1.0000898	-1.0942581
C	5.5179188	1.4134849	-0.9126776
H	4.8073157	1.9436644	-0.2720571
H	6.4951025	1.4169375	-0.4233487
H	5.1616333	0.3904860	-1.0565426
C	5.6088910	2.1106610	-2.2359774
O	4.9631230	3.1006768	-2.5390718
O	6.4891939	1.5240737	-3.0770496
H	6.9300196	0.7407529	-2.6973408
