11
-268.222 (energy)
C	0.0251857	-0.0646274	-0.0472954
H	-0.2998818	0.7695076	0.5631388
C	-0.4901828	-0.3607158	-1.2408755
H	-1.2854679	0.2492439	-1.6580621
H	-0.1446652	-1.2024125	-1.8297277
O	1.0242369	-0.7696162	0.5585763
H	1.2834231	-1.5054553	-0.0225901
C	0.7562240	-4.8815411	-2.8055411
H	1.0507324	-3.8413518	-2.5934038
H	1.5618326	-5.5378443	-3.1716243
O	-0.3900720	-5.2815590	-2.6451352
