11
-268.222 (energy)
C	-0.1050251	-1.2197534	-0.7081867
H	-0.7737357	-1.3771192	-1.5461260
C	-0.0049084	-0.0704653	-0.0395911
H	-0.6152308	0.7810384	-0.3242342
H	0.6736744	0.0579803	0.7956392
O	0.6177610	-2.3423626	-0.4261905
H	1.2016772	-2.1557641	0.3291994
C	4.6151900	-1.3714424	-0.1162663
H	3.7513843	-0.8511988	-0.5600202
H	4.4049713	-1.9426505	0.8020394
O	5.7343086	-1.3183499	-0.6107294
