11
-268.222 (energy)
C	0.0528503	0.0101505	-0.0644336
H	-0.6292797	-0.1208599	0.7672003
C	-0.2329997	0.7151998	-1.1594687
H	-1.1985351	1.2015446	-1.2583816
H	0.4699652	0.8291175	-1.9764423
O	1.2356633	-0.6353459	0.1511605
H	1.8143266	-0.4910173	-0.6174155
C	3.5136895	-1.7403496	-3.2151971
H	3.9714354	-0.9103896	-2.6536222
H	3.3184827	-2.6559358	-2.6343769
O	3.2401206	-1.6511434	-4.4055505
