11
-268.222 (energy)
C	-1.2509844	0.0280438	0.5917959
H	-2.0596337	0.2189893	-0.1036939
C	-1.4223838	-0.1648269	1.8999739
H	-2.4189634	-0.1357783	2.3295775
H	-0.5936816	-0.3540280	2.5723118
O	-0.0410959	0.0103072	-0.0391149
H	0.6522224	-0.1635826	0.6207813
C	2.2947290	1.9455826	3.6863948
H	2.0675508	1.3381078	2.7958356
H	2.5281250	1.3780294	4.6013623
O	2.2882566	3.1699400	3.6609772
