24
-0.0094629 (energy)
C	0.5934528	0.1389096	0.2728837
N	-0.3895239	-0.0911758	-0.1791126
H	-1.0748980	-0.5631022	0.3470045
H	-0.5790628	0.1759584	-1.1075324
N	1.5286535	0.8030918	-0.4996562
H	1.2882229	1.0417541	-1.4564120
C	3.1172253	0.8426343	1.2602977
C	2.7750231	1.1485401	-0.0061264
H	3.4304272	1.6672209	-0.6977070
H	4.0704800	1.0812975	1.7098571
C	2.2053953	-0.2711236	3.3291393
N	2.1678324	0.1718835	2.0346902
H	3.0661666	-0.1373455	3.9657236
C	0.9768451	-0.8609466	3.5462200
N	0.1800202	-0.7965288	2.4256330
C	0.9192750	-0.1739779	1.5397383
C	-2.2213701	0.4056387	5.3943503
H	-2.6977486	-0.3142518	4.7225892
H	-1.1395198	0.2572492	5.3504940
H	-2.4863345	1.4145651	5.0687362
C	-2.7100258	0.1782181	6.7925449
O	-3.5306656	-0.6685375	7.1065020
O	-2.1455740	1.0190869	7.6873936
H	-1.5087429	1.6425431	7.2900953
