11
-268.221 (energy)
C	0.0754658	0.0367220	-0.0020706
H	-0.8985584	-0.4372429	0.0246548
C	1.1310540	-0.3885164	0.6927764
H	1.0462942	-1.2597304	1.3349412
H	2.0942038	0.1062176	0.6462628
O	0.0835547	1.1188108	-0.8334620
H	0.9737955	1.5109973	-0.8262508
C	3.4667429	3.6908633	-2.7338764
H	3.3299218	2.7185388	-2.2342803
H	3.4389384	4.5721457	-2.0733280
O	3.6382831	3.7857438	-3.9427231
