24
-0.00920816 (energy)
C	0.2308155	1.1527422	-0.7908554
N	0.0657825	2.1232155	-0.2864462
H	0.2087301	2.9641113	-0.7780880
H	-0.2240541	2.1461047	0.6541494
N	0.0190028	-0.0053378	-0.0652229
H	-0.2640314	0.0741653	0.9062292
C	0.5566134	-1.3922197	-1.9118672
C	0.1816192	-1.2610590	-0.6247436
H	-0.0106849	-2.1010236	0.0343061
H	0.7020428	-2.3390106	-2.4120627
C	1.1474051	-0.0145967	-3.9379758
N	0.7687452	-0.2184347	-2.6386178
H	1.3460970	-0.8259675	-4.6208100
C	1.1926272	1.3560604	-4.0916147
N	0.8535134	2.0068080	-2.9270014
C	0.6056844	1.0393871	-2.0775579
C	4.9080993	1.5017221	-0.8974494
H	5.5220220	1.3208087	-0.0104258
H	5.2938427	0.8897440	-1.7166122
H	3.8745650	1.2316781	-0.6671317
C	4.9841940	2.9521377	-1.2661727
O	5.6191964	3.7886684	-0.6448821
O	4.2659469	3.2493916	-2.3716960
H	3.8100537	2.4791997	-2.7603646
