11
-268.221 (energy)
C	0.0301214	-0.0208089	-0.0755485
H	-0.3586505	0.2477684	0.8995427
C	0.5112055	-1.2264453	-0.3803524
H	0.5301984	-2.0115409	0.3692062
H	0.8939817	-1.4666403	-1.3654267
O	-0.0352707	1.0271816	-0.9471176
H	0.3226888	0.7417516	-1.8054798
C	2.5266227	1.5111310	-4.5886014
H	3.3252365	1.6628058	-3.8450007
H	1.8426928	0.6714597	-4.3862457
O	2.4071096	2.2280031	-5.5742738
