24
-0.00893422 (energy)
C	0.3009091	2.4963044	0.6434462
N	0.3038831	3.6016418	0.6021751
H	0.6540207	4.1216417	1.3612899
H	-0.0436061	4.0654632	-0.1936705
N	-0.1994679	1.8030433	-0.4435536
H	-0.5602859	2.3299320	-1.2324432
C	0.2520918	-0.3016741	0.5508407
C	-0.2210789	0.4194779	-0.4838380
H	-0.6353727	-0.0210523	-1.3844833
H	0.2661078	-1.3816169	0.5866929
C	1.2973241	-0.0227580	2.8271736
N	0.7558885	0.4050834	1.6451990
H	1.4076885	-1.0675272	3.0728166
C	1.6166788	1.1287136	3.5174464
N	1.2894284	2.2562002	2.7987838
C	0.7772998	1.7912461	1.6850430
C	4.7311706	1.9254673	-0.5139166
H	5.0200086	2.8953971	-0.9289473
H	5.4636585	1.1798925	-0.8331697
H	4.7105406	2.0047119	0.5757888
C	3.3715094	1.5533239	-1.0221324
O	2.6985168	2.2504482	-1.7638280
O	2.9545362	0.3504481	-0.5686530
H	3.5982911	-0.0911120	0.0167544
