11
-268.226 (energy)
C	0.2176589	1.0011277	-0.9750513
H	0.1267715	2.0634734	-0.7820717
C	0.0127845	0.0561844	-0.0568928
H	-0.2633026	0.3310517	0.9564175
H	0.1110802	-1.0000292	-0.2790046
O	0.5667834	0.7553347	-2.2711573
H	0.6366156	-0.2066186	-2.3982803
C	3.0005739	-1.4683902	-5.2845352
H	3.8945529	-2.1021945	-5.3977827
H	2.9773119	-0.5636483	-5.9127524
O	2.0932939	-1.7506897	-4.5119494
