24
-0.0176469 (energy)
C	-0.3836532	-1.3530722	1.8874343
N	0.2012333	-2.2889737	1.8134124
H	0.7667752	-2.4549492	1.0248277
H	0.1562790	-2.9560093	2.5361099
N	-1.1655881	-1.1582043	3.0113386
H	-1.1887181	-1.8846125	3.7198188
C	-1.8977582	0.9711764	2.2682191
C	-1.9121876	-0.0069196	3.1943027
H	-2.4893176	0.0417403	4.1115929
H	-2.4547873	1.8939114	2.3459177
C	-0.8801072	1.5512974	0.0366631
N	-1.1058669	0.7675786	1.1357909
H	-1.3383469	2.5195183	-0.0922879
C	-0.0076831	0.8283067	-0.7510623
N	0.3134306	-0.3789907	-0.1730365
C	-0.3580662	-0.3860539	0.9529825
C	3.6275995	1.6553706	-2.2909143
H	4.5255227	1.0585361	-2.1066205
H	3.4624707	1.7089228	-3.3698987
H	2.7813404	1.1745785	-1.7940767
C	3.8256665	3.0336828	-1.7373102
O	4.8313329	3.4039060	-1.1537148
O	2.7620259	3.8402280	-1.9484359
H	2.0310525	3.4058340	-2.4270559
