11
-268.221 (energy)
C	-0.4369987	1.1134719	-0.7546984
H	-0.0319681	1.3849872	-1.7223293
C	-0.0260616	0.0640993	-0.0420593
H	0.7604718	-0.5797904	-0.4233007
H	-0.4501608	-0.1834289	0.9240941
O	-1.4163049	1.9783407	-0.3608020
H	-1.7493770	1.6971767	0.5089110
C	3.1938123	0.0451653	1.8174076
H	4.2608073	-0.0967350	2.0521782
H	2.5541002	-0.8401107	1.9616666
O	2.7485760	1.1154576	1.4224673
