24
-0.0089311 (energy)
C	2.0671665	-1.5692807	0.0168981
N	2.7018219	-2.4750099	0.0356107
H	3.6823975	-2.3887235	0.0522671
H	2.2861329	-3.3674514	0.0356097
N	0.6942087	-1.7336464	-0.0060652
H	0.3172269	-2.6758815	-0.0210957
C	0.3030541	0.6050032	0.0106015
C	-0.1732783	-0.6548505	-0.0090671
H	-1.2303455	-0.8980022	-0.0278847
H	-0.3148738	1.4915258	0.0096149
C	2.4728828	1.8862919	0.0568509
N	1.6906045	0.7634511	0.0337456
H	2.0606230	2.8833348	0.0601385
C	3.7724701	1.4224202	0.0725561
N	3.8184403	0.0467309	0.0598755
C	2.5592649	-0.3177118	0.0367395
C	4.1501012	0.1550620	3.4461734
H	3.1185978	-0.1460798	3.2418307
H	4.8214074	-0.5839915	3.0017742
H	4.3183353	1.1421458	3.0085365
C	4.3659063	0.2127194	4.9279144
O	3.5037775	-0.0204658	5.7594024
O	5.6299464	0.5571119	5.2596027
H	6.2072208	0.7143457	4.4888049
