11
-268.221 (energy)
C	0.1220400	0.2389247	1.3579367
H	-0.2120367	1.2243158	1.6603888
C	0.6088274	-0.6741842	2.1988746
H	0.6900202	-0.4515958	3.2583253
H	0.9357155	-1.6528700	1.8673615
O	-0.0184229	0.0529832	0.0133591
H	0.2923850	-0.8408818	-0.2120178
C	3.5749791	1.1028744	0.6393743
H	4.5201306	1.6681870	0.6683854
H	3.5157725	0.2414524	1.3236277
O	2.6518314	1.4114035	-0.1038262
