24
-0.00874604 (energy)
C	-1.4226842	-2.1489356	0.3068391
N	-1.9294021	-3.1130669	0.1140417
H	-2.4955461	-3.5193358	0.8095114
H	-1.8142708	-3.5649365	-0.7530268
N	-0.6363482	-1.6118545	-0.6960449
H	-0.5383365	-2.1262116	-1.5655152
C	-0.0988280	0.3010180	0.5980002
C	0.0159088	-0.4000205	-0.5465046
H	0.6060032	-0.0725353	-1.3958633
H	0.3813022	1.2513411	0.7827141
C	-1.2073262	0.2058396	2.8594531
N	-0.8945380	-0.2474208	1.6064634
H	-0.8336989	1.1390782	3.2512844
C	-2.0330444	-0.7595370	3.3985156
N	-2.2408768	-1.7964843	2.5174135
C	-1.5477940	-1.4615652	1.4561209
C	2.7486628	-4.3915145	-4.8854036
H	2.8777385	-4.0869331	-5.9280020
H	2.4034995	-5.4282794	-4.8674164
H	3.7088294	-4.2951616	-4.3726081
C	1.7323616	-3.5053230	-4.2317604
O	1.1667952	-2.5782750	-4.7882945
O	1.5012199	-3.8367897	-2.9421388
H	2.0272804	-4.5986807	-2.6341131
