11
-268.221 (energy)
C	0.0740798	0.0159443	-0.0361366
H	-0.8820550	-0.1898457	0.4302719
C	1.2432499	-0.4159261	0.4376099
H	1.2775900	-1.0127514	1.3438076
H	2.1850206	-0.1942547	-0.0507674
O	-0.0706721	0.7696822	-1.1644624
H	0.8090339	0.9291730	-1.5479608
C	4.3101436	0.2736607	-3.0763468
H	4.6342110	0.1952094	-2.0263196
H	3.2241835	0.3751024	-3.2317698
O	5.1040089	0.2497092	-4.0085179
