11
-268.221 (energy)
C	0.0317060	-0.0684678	0.0368072
H	-0.3775179	0.8152344	-0.4382574
C	1.3313391	-0.3650831	0.0664658
H	2.0525463	0.2962100	-0.4037739
H	1.7122327	-1.2572696	0.5496904
O	-0.9480230	-0.8349487	0.5979054
H	-0.5365933	-1.6137660	1.0108945
C	0.3052493	-4.2291129	3.2695044
H	0.8998515	-3.3429219	2.9959263
H	0.3557098	-5.0717690	2.5615918
O	-0.3668968	-4.2744917	4.2921966
