24
-0.0063313 (energy)
C	0.1257422	1.8869168	1.7775935
N	-0.1158992	2.7783326	2.3862563
H	0.5092908	3.0827465	3.0831932
H	-0.9561626	3.2673354	2.2310700
N	-0.7788922	1.4921397	0.8089119
H	-1.6377620	2.0219890	0.7005113
C	0.5866965	-0.3174781	0.1139208
C	-0.5456815	0.4013107	-0.0108735
H	-1.3215274	0.1803194	-0.7361968
H	0.8331687	-1.1784997	-0.4907704
C	2.7115417	-0.4203218	1.4653838
N	1.4957353	0.0869548	1.0942370
H	3.1519807	-1.2833193	0.9907131
C	3.1462922	0.3940661	2.4911105
N	2.2366742	1.3899259	2.7661616
C	1.2615899	1.1799032	1.9152928
C	6.1203315	2.2160930	1.4677877
H	5.7585532	1.4662753	0.7583290
H	6.3991824	3.1140886	0.9108417
H	5.3214691	2.4360123	2.1802604
C	7.3146653	1.6763532	2.1942175
O	7.7797666	0.5613606	2.0225025
O	7.8339684	2.5592470	3.0758316
H	7.3559919	3.4094116	3.1050883
