11
-268.221 (energy)
C	0.0193123	-0.0682668	-0.0448838
H	-0.2299481	0.8128416	0.5344238
C	-0.8600563	-1.0118280	-0.3829809
H	-1.8978922	-0.9251375	-0.0764597
H	-0.5816743	-1.8834162	-0.9638598
O	1.3413826	-0.0885948	-0.3823890
H	1.5189835	-0.8934302	-0.8991954
C	1.6440972	-4.4952339	-0.5698549
H	2.3272337	-3.7020612	-0.2264412
H	1.3432761	-4.4374366	-1.6281186
O	1.2457249	-5.3819363	0.1749922
