24
-0.00621528 (energy)
C	-0.4072782	0.3805794	1.3026229
N	0.2230968	1.1406865	1.8009678
H	-0.0036759	1.4507894	2.7074234
H	1.0109415	1.5071274	1.3380737
N	-0.0545637	-0.0282758	0.0294433
H	0.7581266	0.3928737	-0.4090950
C	-1.8575601	-1.5631509	-0.0967475
C	-0.7753954	-0.9898035	-0.6577317
H	-0.4107922	-1.2352551	-1.6495411
H	-2.4652387	-2.3182749	-0.5745264
C	-3.2301030	-1.5244013	2.0166906
N	-2.2079009	-1.1454008	1.1892088
H	-3.9591612	-2.2693528	1.7381499
C	-3.0696796	-0.7690681	3.1604069
N	-1.9793774	0.0658796	3.0660766
C	-1.4853716	-0.1820305	1.8772219
C	4.6662827	-2.6966821	-2.1387915
H	5.3421877	-2.8450827	-2.9858873
H	4.3175867	-3.6748025	-1.7981532
H	5.2116424	-2.1826095	-1.3435083
C	3.4993711	-1.8639450	-2.5750472
O	3.3576119	-1.4117261	-3.6995098
O	2.6048525	-1.6563606	-1.5835001
H	2.8524126	-2.0781679	-0.7391719
