11
-268.221 (energy)
C	-0.5120205	-0.6704051	-1.1352309
H	-1.5673397	-0.8407429	-1.3123367
C	-0.0278294	-0.0385812	-0.0655281
H	-0.7026530	0.3419345	0.6949945
H	1.0340125	0.1174454	0.0852373
O	0.2540627	-1.1825470	-2.1417199
H	1.1897953	-1.0073053	-1.9415051
C	4.1741976	0.2401709	-0.1453924
H	3.8032813	0.6120061	-1.1138402
H	3.8915499	-0.7946402	0.1056695
O	4.8552017	0.9309660	0.6021197
