24
-0.00611576 (energy)
C	1.2709648	-1.7829403	-0.8638140
N	2.0604304	-2.0740577	-0.1458462
H	2.1535464	-1.5900436	0.7063927
H	2.6699882	-2.8171825	-0.3590457
N	1.1736151	-2.4880079	-2.0495456
H	1.8372273	-3.2351467	-2.2271706
C	-0.6898036	-1.2169650	-2.7807651
C	0.2020280	-2.2037650	-2.9937742
H	0.2168077	-2.8185563	-3.8874639
H	-1.4727478	-0.9416389	-3.4728289
C	-1.3220522	0.5276279	-1.0752876
N	-0.5855281	-0.5091402	-1.5811618
H	-2.1565135	0.9615756	-1.6038964
C	-0.7532172	0.8127966	0.1492353
N	0.3129114	-0.0158287	0.4167136
C	0.3880738	-0.7943257	-0.6355078
C	1.8357588	2.7634375	-1.6421002
H	0.7446702	2.8276488	-1.6850442
H	2.2207877	3.6907619	-1.2106317
H	2.1104450	1.9060483	-1.0227502
C	2.3771479	2.5835471	-3.0277372
O	1.6880397	2.4998703	-4.0313017
O	3.7267137	2.5188883	-3.0579381
H	4.1416244	2.5993883	-2.1784688
