24
-0.00559014 (energy)
C	1.8596775	0.8928608	-1.5749617
N	2.3877708	1.4508400	-2.3707378
H	3.3465018	1.2930013	-2.5293985
H	1.8990795	2.1053143	-2.9203680
N	0.5131198	1.1437588	-1.3842025
H	0.0605568	1.8400730	-1.9677103
C	0.3497369	-0.4531395	0.3610149
C	-0.2284933	0.4751526	-0.4253912
H	-1.2759999	0.7498773	-0.3611703
H	-0.1676273	-1.0119835	1.1276869
C	2.5721557	-1.5641176	0.7836006
N	1.7098965	-0.7013516	0.1627877
H	2.2644361	-2.2206214	1.5825843
C	3.7895606	-1.3683649	0.1639580
N	3.7071242	-0.4107652	-0.8214363
C	2.4524295	-0.0312038	-0.7979618
C	0.6543261	-3.6729424	-2.5361170
H	1.2873519	-4.5361164	-2.7611741
H	-0.3897241	-3.9955570	-2.5510164
H	0.9259317	-3.2891461	-1.5496618
C	0.8742686	-2.6127656	-3.5720239
O	1.6604287	-2.7089517	-4.5003095
O	0.1056993	-1.5191193	-3.3728763
H	-0.4729644	-1.5853770	-2.5900254
