11
-268.221 (energy)
C	0.3804180	1.1089462	-0.7911243
H	0.3371071	1.1230204	-1.8737166
C	0.0221404	0.0642921	-0.0439687
H	-0.3398335	-0.8444611	-0.5148363
H	0.0762114	0.0789464	1.0383641
O	0.8460967	2.2909154	-0.2928421
H	0.8679613	2.2330818	0.6780174
C	2.1761394	2.4229340	3.6186541
H	1.1828041	2.1152167	3.9824210
H	2.6995264	1.6871189	2.9874663
O	2.6658290	3.5102723	3.8972906
