24
-0.00553966 (energy)
C	2.1653651	-0.7717435	-1.2048696
N	3.0642071	-0.7856677	-1.8493634
H	3.6137887	-1.6002350	-1.9101210
H	3.3146530	0.0165031	-2.3622455
N	1.4204658	0.3920248	-1.1472079
H	1.7313665	1.1957137	-1.6834662
C	-0.1623388	-0.5638060	0.3372714
C	0.2703152	0.4890893	-0.3829596
H	-0.2362009	1.4480267	-0.4103212
H	-1.0494557	-0.5583885	0.9543230
C	0.4279728	-2.9543303	0.8747859
N	0.5948753	-1.7358107	0.2742710
H	-0.3969110	-3.1696014	1.5360638
C	1.4889763	-3.7216008	0.4389894
N	2.3074922	-3.0151650	-0.4129350
C	1.7471049	-1.8325156	-0.4915672
C	4.4742124	0.4931051	1.8428200
H	3.7021708	0.4300918	1.0705359
H	4.2565224	1.3530493	2.4811380
H	4.4622686	-0.4321926	2.4240640
C	5.8130927	0.6676383	1.1929041
O	5.9937453	0.7063917	-0.0132785
O	6.8192484	0.7769165	2.0885210
H	6.5232397	0.7266851	3.0169353
