24
-0.0168661 (energy)
C	-2.3817397	-1.1564908	1.2094840
N	-2.8761927	-2.0936232	1.5269458
H	-2.4333128	-2.9597029	1.3752396
H	-3.7591649	-2.0616532	1.9612122
N	-3.0372178	0.0390989	1.4407208
H	-3.9530538	0.0152396	1.8775541
C	-1.2672518	1.3160924	0.5138605
C	-2.4812944	1.2587427	1.0946552
H	-3.0816063	2.1334803	1.3212117
H	-0.7744031	2.2312167	0.2182157
C	0.6065926	-0.1724431	-0.2766870
N	-0.6110891	0.1047872	0.2833659
H	1.2680898	0.5973004	-0.6427196
C	0.7189272	-1.5472951	-0.2377786
N	-0.3920675	-2.1294864	0.3292654
C	-1.1685105	-1.1168628	0.6302745
C	3.2040237	-0.2534919	2.7106423
H	3.3002054	0.0186232	3.7656988
H	2.6430788	-1.1890189	2.6437631
H	2.6779544	0.5503479	2.1898200
C	4.5685901	-0.4348067	2.1185815
O	5.6120767	-0.2748334	2.7305930
O	4.5304247	-0.7962813	0.8169287
H	3.6257330	-0.8846382	0.4622128
