11
-268.226 (energy)
C	-0.4459427	-0.9387556	-0.9592863
H	-1.2194653	-0.7356438	-1.6903735
C	-0.0244956	-0.0548057	-0.0543435
H	-0.4602980	0.9388532	-0.0183949
H	0.7519633	-0.2862916	0.6654540
O	0.0391592	-2.2082727	-1.0825562
H	0.7279484	-2.3456699	-0.4094422
C	3.9997832	-0.2859015	-1.4729925
H	4.0118982	0.8111323	-1.5734986
H	4.5305716	-0.8409450	-2.2628952
O	3.4340950	-0.8506597	-0.5452081
