11
-268.22 (energy)
C	0.3490680	-0.9206669	-0.9728797
H	0.0394754	-1.9341977	-0.7470748
C	1.0061366	-0.5705535	-2.0790388
H	1.2634424	-1.3202299	-2.8208964
H	1.3033513	0.4524304	-2.2784125
O	-0.0176061	-0.0529709	0.0144637
H	0.2794219	0.8406864	-0.2295487
C	3.4991238	0.9007322	1.3359975
H	3.1544797	1.8385886	1.8000851
H	4.5530673	0.8889684	1.0153408
O	2.7600604	-0.0642480	1.1865405
