24
-0.00248947 (energy)
C	-0.4372405	2.7196021	-0.9410589
N	-0.2548318	3.7916490	-0.7387588
H	0.2306147	4.0636888	0.0733911
H	-0.5779212	4.4737989	-1.3708458
N	-1.1229104	2.3792844	-2.0928389
H	-1.4481921	3.1223702	-2.7028910
C	-0.9539215	0.0579252	-1.6397431
C	-1.3755152	1.0614662	-2.4332638
H	-1.9212377	0.9081789	-3.3582276
H	-1.1158205	-0.9908851	-1.8435665
C	0.2857494	-0.3567841	0.5150720
N	-0.2621246	0.4090067	-0.4782370
H	0.2396814	-1.4347133	0.5119166
C	0.8401641	0.5429737	1.4024339
N	0.6521616	1.8422994	0.9886675
C	-0.0093197	1.7294541	-0.1376474
C	3.7870174	4.0837950	-1.4864144
H	3.4305354	5.0825949	-1.7542969
H	3.0612246	3.6268782	-0.8090705
H	3.8878489	3.4929078	-2.4001148
C	5.1170473	4.1976907	-0.8056053
O	5.7043096	5.2497077	-0.6122228
O	5.6130153	3.0003411	-0.4224732
H	5.0331947	2.2477928	-0.6451312
