24
0.0035094 (energy)
C	1.8786328	-0.3662100	-1.3700480
N	1.6214374	-0.1832441	-2.4301692
H	0.7051593	0.0798475	-2.6760729
H	2.3087919	-0.2834837	-3.1278403
N	3.1767748	-0.7340055	-1.0665509
H	3.8427536	-0.8387618	-1.8252647
C	2.7235237	-0.8287625	1.2589912
C	3.5889267	-0.9614203	0.2352772
H	4.6286241	-1.2450866	0.3594982
H	2.9763673	-0.9902553	2.2971379
C	0.3194697	-0.2431841	1.7381764
N	1.4142317	-0.4570791	0.9450751
H	0.3482137	-0.3492217	2.8114859
C	-0.6955631	0.1023486	0.8694610
N	-0.2624610	0.1088462	-0.4371282
C	1.0018348	-0.2293637	-0.3593663
C	3.4551022	-4.3543376	-4.7279242
H	3.9365355	-4.8779925	-5.5588570
H	3.4650314	-5.0093501	-3.8531655
H	4.0094553	-3.4341395	-4.5276962
C	2.0416998	-4.0250471	-5.1011721
O	1.5346067	-4.2881375	-6.1794363
O	1.3723066	-3.3944990	-4.1108478
H	1.9071695	-3.2507296	-3.3075113
