11
-268.22 (energy)
C	0.0133794	0.0156981	0.0813784
H	-0.1593068	-0.1869141	-0.9689586
C	0.6010662	1.1208569	0.5408940
H	0.9401111	1.8860674	-0.1505360
H	0.7607107	1.2966272	1.5983443
O	-0.4451367	-0.9995521	0.8695555
H	-0.2697878	-0.7756828	1.7998921
C	2.3542735	-3.5541829	-0.4755319
H	3.2793314	-3.3305432	0.0794316
H	2.4946622	-4.0140933	-1.4667580
O	1.2440913	-3.3080016	-0.0209671
