24
0.00392938 (energy)
C	-0.9578194	-2.1076178	-0.4253608
N	-1.9718691	-2.1633135	0.0129134
H	-2.3372779	-1.3944768	0.5075019
H	-2.5090290	-2.9817200	-0.0915819
N	-0.4814064	-3.2091689	-1.1125087
H	-1.0695428	-4.0338076	-1.1774300
C	1.5660654	-2.1344789	-1.6373535
C	0.7673938	-3.2167832	-1.7098222
H	1.0407479	-4.1327619	-2.2227828
H	2.5502356	-2.0711733	-2.0791225
C	1.6317909	0.2010260	-0.6923175
N	1.0784417	-1.0256771	-0.9418543
H	2.6134350	0.4793418	-1.0430008
C	0.6844033	0.8831420	0.0435666
N	-0.4384434	0.1160661	0.2571194
C	-0.1727738	-1.0185821	-0.3436050
C	1.8506490	2.3861981	3.1721810
H	1.9185430	1.3890819	2.7276686
H	2.1369354	2.3167131	4.2245852
H	2.5247667	3.0554089	2.6319168
C	0.4419995	2.8847174	3.0597638
O	-0.4670729	2.2675377	2.5290187
O	0.2740890	4.1073594	3.6105571
H	1.0902842	4.4776885	3.9962761
