11
-268.226 (energy)
C	-0.0128358	-0.0102355	0.0823308
H	0.1528338	0.1218719	-0.9802986
C	-1.2143023	0.0233408	0.6596152
H	-2.1032536	0.1910779	0.0594455
H	-1.3497594	-0.1121941	1.7263225
O	1.1592881	-0.2142949	0.7506707
H	0.9632204	-0.3272996	1.6968094
C	3.6911273	-2.1842815	0.3822803
H	4.0016498	-1.1686192	0.6750893
H	4.0320610	-2.5171593	-0.6110537
O	3.0123246	-2.8957431	1.1122037
