24
0.00474925 (energy)
C	-1.9646129	0.5400819	1.1785627
N	-2.6276449	1.1657546	0.5521400
H	-2.3475117	1.4239683	-0.3556609
H	-3.4979166	1.4644295	0.9023822
N	-2.3950839	0.1993120	2.4478645
H	-3.2940091	0.5466887	2.7663158
C	-0.4417050	-1.0702874	2.8894410
C	-1.6378436	-0.5972978	3.2894959
H	-2.0707471	-0.8023476	4.2628494
H	0.2004487	-1.6957671	3.4929078
C	1.1276113	-1.0338505	0.9176614
N	-0.0133341	-0.7221375	1.6063870
H	1.9090050	-1.6505029	1.3338672
C	0.9959850	-0.4068128	-0.3045698
N	-0.1916132	0.2834928	-0.3933580
C	-0.7723873	0.0759987	0.7635881
C	-0.3515175	4.1227115	1.6112971
H	-0.6862303	3.7051421	0.6573345
H	-0.9998664	4.9642535	1.8677993
H	-0.4118114	3.3422778	2.3738266
C	1.0646819	4.5937142	1.4771757
O	1.7302926	4.4947540	0.4592450
O	1.5424216	5.1458801	2.6144084
H	0.8966040	5.1548474	3.3458021
