24
0.00481482 (energy)
C	-2.2155797	0.7918029	0.0682426
N	-2.4874875	1.2538241	-0.8992726
H	-1.8264288	1.2961758	-1.6275988
H	-3.3905584	1.6227001	-1.0320979
N	-3.1728574	0.7521890	1.0655423
H	-4.0835736	1.1610179	0.8822308
C	-1.7228443	-0.3751381	2.5652615
C	-2.9236188	0.1738587	2.2983268
H	-3.7448531	0.1979146	3.0067500
H	-1.4600363	-0.8423379	3.5035655
C	0.5277586	-0.7904674	1.5096651
N	-0.7609310	-0.3315272	1.5534521
H	0.9960007	-1.2919193	2.3423469
C	0.9865247	-0.4631565	0.2500016
N	0.0211126	0.1843684	-0.4872134
C	-1.0111614	0.2480129	0.3185387
C	4.2595209	1.8958157	-0.0430908
H	4.2223155	0.8027568	-0.0598188
H	4.1357533	2.2310339	0.9896982
H	5.2251243	2.2179230	-0.4406082
C	3.1525069	2.4430286	-0.8919315
O	2.3590592	1.7572036	-1.5157092
O	3.1196742	3.7940441	-0.9019213
H	3.8169695	4.2059671	-0.3576823
