24
0.00496685 (energy)
C	-1.3417422	-1.9192630	0.2378230
N	-0.7827493	-2.7147958	0.7652104
H	0.1473983	-2.5585369	1.0474513
H	-1.2153548	-3.5791279	0.9523782
N	-2.6460413	-2.1786616	-0.1417463
H	-3.0393269	-3.0920213	0.0613515
C	-2.9241551	-0.0132520	-1.0670655
C	-3.4238028	-1.2323751	-0.7867054
H	-4.4325767	-1.5415509	-1.0390020
H	-3.4735438	0.7716478	-1.5669282
C	-0.8228105	1.3556420	-0.8171134
N	-1.6062971	0.2417124	-0.6808262
H	-1.1734495	2.2600342	-1.2895439
C	0.3875139	1.0196789	-0.2456288
N	0.3770638	-0.2682026	0.2402177
C	-0.8275182	-0.7067073	-0.0346867
C	-1.0535283	-7.2042510	-0.0550613
H	-1.2750277	-8.0467499	0.6064334
H	-1.9978770	-6.7913438	-0.4184563
H	-0.4962090	-6.4537538	0.5109003
C	-0.2295837	-7.6842456	-1.2109909
O	0.1453198	-8.8360391	-1.3587497
O	0.0656087	-6.6992393	-2.0879427
H	-0.3008387	-5.8302663	-1.8375438
