24
0.00583835 (energy)
C	-0.3829740	-0.5136442	0.1882768
N	0.2513724	0.3371400	-0.1235789
H	-0.1247290	1.0505807	-0.6882041
H	1.1920800	0.3809530	0.1634729
N	0.1833821	-1.4949526	0.9812656
H	1.1621805	-1.4098543	1.2359423
C	-1.8444657	-2.7172815	1.1089653
C	-0.5441139	-2.5823698	1.4336112
H	-0.0010551	-3.2918178	2.0489475
H	-2.4710362	-3.5385326	1.4263205
C	-3.6770167	-1.5701198	-0.1863234
N	-2.4098102	-1.7225081	0.3078729
H	-4.4672574	-2.2783199	0.0087047
C	-3.6446201	-0.3964425	-0.9114324
N	-2.3960309	0.1822639	-0.8811223
C	-1.6804962	-0.6332630	-0.1450498
C	3.1629868	2.0170839	3.1998316
H	3.7047011	2.9663745	3.2426631
H	2.2331356	2.1733009	2.6472778
H	3.7921628	1.2790347	2.6962603
C	2.8562512	1.5575336	4.5927349
O	3.1898440	2.1533194	5.6040553
O	2.1644863	0.3968804	4.6204122
H	1.9700920	0.0365470	3.7347102
