24
0.0062349 (energy)
C	1.2114578	1.2710974	1.5675088
N	0.5386703	1.6391317	2.3646229
H	-0.4222645	1.4271180	2.3345275
H	0.9007788	2.1787179	3.1041994
N	2.5546125	1.5908341	1.6466313
H	2.8735644	2.1634247	2.4215880
C	3.0698241	0.3927997	-0.3337303
C	3.4689822	1.1537444	0.7036446
H	4.4966240	1.4629318	0.8624638
H	3.7277088	0.0176411	-1.1045754
C	1.0038598	-0.6645680	-1.3164617
N	1.7119694	0.0737973	-0.4072522
H	1.4653135	-1.1340419	-2.1712824
C	-0.3019374	-0.6324579	-0.8712500
N	-0.4236567	0.1032514	0.2857769
C	0.7963120	0.5119715	0.5377705
C	2.1636665	-2.6547621	2.0049342
H	1.7663131	-1.6885843	2.3290521
H	2.7958053	-2.4930430	1.1282413
H	2.7433038	-3.0861106	2.8247648
C	1.0272379	-3.5654780	1.6519763
O	-0.1515640	-3.2634911	1.7427713
O	1.4422761	-4.7763448	1.2184266
H	2.4130309	-4.8733183	1.2002944
