24
0.00667297 (energy)
C	-0.4848404	-0.4582158	-0.0302595
N	0.3182342	0.3007585	0.0198616
H	0.6054127	0.7682741	-0.7975790
H	0.7458432	0.5087792	0.8819098
N	-0.8589800	-1.0921403	1.1405162
H	-0.3750656	-0.8520954	1.9997913
C	-2.5255147	-2.3738821	0.0439938
C	-1.8687492	-2.0385882	1.1712683
H	-2.0805537	-2.4728375	2.1425739
H	-3.3220084	-3.1025569	-0.0048857
C	-2.6022447	-1.8435468	-2.4186985
N	-2.1423940	-1.7296736	-1.1346289
H	-3.3988634	-2.5169119	-2.6944550
C	-1.8430149	-0.9575619	-3.1555511
N	-0.9272724	-0.2987858	-2.3667390
C	-1.1306631	-0.7815288	-1.1648788
C	3.0870371	4.1364907	-1.6843652
H	3.1170952	5.2291623	-1.7244539
H	4.0110953	3.7811158	-1.2215824
H	2.2183474	3.8329984	-1.0949301
C	2.9724386	3.5918802	-3.0756665
O	2.9007679	4.2795978	-4.0811124
O	2.9528604	2.2409781	-3.1088440
H	3.0166730	1.8274189	-2.2273713
