24
-0.016517 (energy)
C	-2.3013371	-0.4926248	0.0396346
N	-2.8646707	0.3440686	0.4935976
H	-2.3859007	1.1397049	0.8206962
H	-3.8448408	0.2931445	0.5705556
N	-3.0112381	-1.5920675	-0.4073810
H	-4.0193196	-1.6009349	-0.2897324
C	-1.0512279	-2.6844431	-1.1739561
C	-2.3877965	-2.6730137	-1.0067299
H	-3.0400552	-3.4814127	-1.3196477
H	-0.5001119	-3.4929867	-1.6325265
C	0.9966380	-1.2805209	-0.7412391
N	-0.3407303	-1.5708064	-0.7201456
H	1.7319573	-1.9524256	-1.1558633
C	1.1071130	-0.0375078	-0.1521173
N	-0.1210665	0.4504248	0.2329693
C	-0.9658377	-0.4881030	-0.1197399
C	4.1918380	-0.7381954	3.5213170
H	4.5862636	-1.2728215	4.3902503
H	4.9972452	-0.1405470	3.0871759
H	3.8222491	-1.4707017	2.7995125
C	3.0713727	0.1568327	3.9559832
O	2.6627726	0.2421089	5.1026251
O	2.5461674	0.8708628	2.9358160
H	2.9739438	0.6970898	2.0762185
