11
-268.226 (energy)
C	1.0369634	-0.1479642	-0.9503529
H	1.7607127	0.6246688	-1.1812322
C	0.0588617	-0.0099485	-0.0547106
H	-0.0494268	0.9194821	0.4957495
H	-0.6514289	-0.8010273	0.1556801
O	1.2534361	-1.2743962	-1.6895981
H	0.5834842	-1.9379645	-1.4503650
C	0.8882760	-5.4778266	-0.1803466
H	0.5265732	-5.0947708	0.7872125
H	1.5085468	-6.3868938	-0.1291908
O	0.6188598	-4.9297456	-1.2418366
