24
-0.0155405 (energy)
C	-1.4517655	-1.8456912	0.1618740
N	-2.4996357	-1.5231347	0.0155578
H	-2.7048870	-0.5731738	-0.1415970
H	-3.2270548	-2.1859964	0.0424816
N	-1.2058250	-3.1890215	0.3798960
H	-1.9932699	-3.8284819	0.4140878
C	1.1376945	-2.8521512	0.5102667
C	0.0766789	-3.6810405	0.5514892
H	0.1549058	-4.7504702	0.7160155
H	2.1637776	-3.1670088	0.6358715
C	1.7225624	-0.4210037	0.1949137
N	0.8818360	-1.4968569	0.2896969
H	2.7936681	-0.5087198	0.2903182
C	0.8994013	0.6636804	-0.0291779
N	-0.4251638	0.2920206	-0.0759870
C	-0.4032680	-1.0044457	0.1178488
C	3.0523295	3.7378924	1.3130674
H	2.7776012	4.6199801	1.8986332
H	3.9666386	3.3129653	1.7347528
H	2.2325745	3.0170178	1.3631155
C	3.2880782	4.1411957	-0.1107379
O	3.1634847	5.2787549	-0.5343524
O	3.6557652	3.1034561	-0.8945257
H	3.7124171	2.2541940	-0.4174074
