24
-0.0153525 (energy)
C	-0.5303532	-1.8232054	-1.3910607
N	-0.4287258	-2.7730666	-0.8334600
H	-0.1379885	-2.7630570	0.1070840
H	-0.6290072	-3.6285118	-1.2777010
N	-0.9413493	-1.8805347	-2.7102848
H	-1.1196441	-2.7894778	-3.1252325
C	-0.8844252	0.4782335	-2.9459417
C	-1.1147609	-0.7392532	-3.4743190
H	-1.4396979	-0.8994884	-4.4968691
H	-0.9993390	1.4087524	-3.4832383
C	-0.1603850	1.5859191	-0.8009955
N	-0.4696307	0.5285413	-1.6131431
H	-0.2074645	2.6105507	-1.1356256
C	0.1834633	1.0234251	0.4113245
N	0.0964797	-0.3498409	0.3743225
C	-0.2960477	-0.6151879	-0.8481299
C	1.8636222	2.4746650	3.7906327
H	1.1159322	3.0849679	4.3053479
H	2.3657389	1.8453680	4.5296908
H	1.3571812	1.8612993	3.0413243
C	2.8617859	3.3711242	3.1231876
O	2.8147694	4.5903028	3.1433547
O	3.8347486	2.6857288	2.4828772
H	3.7409147	1.7169851	2.5523624
