24
-0.0139012 (energy)
C	0.4847335	-0.0481592	-2.8697945
N	0.9100337	-0.6283340	-3.7100325
H	1.3464589	-1.4941501	-3.5393079
H	0.8521540	-0.2789130	-4.6286206
N	-0.1198593	1.1632215	-3.1518957
H	-0.1386293	1.4851359	-4.1142714
C	-0.6836295	1.5367970	-0.8791955
C	-0.6959699	1.9427241	-2.1635559
H	-1.1423172	2.8740006	-2.4957699
H	-1.1133862	2.0934590	-0.0587109
C	0.1041947	-0.3654989	0.5742829
N	-0.0713626	0.3124442	-0.6016581
H	-0.2490915	0.0107244	1.5217577
C	0.7781511	-1.5195306	0.2302707
N	1.0250959	-1.5765603	-1.1227115
C	0.5056790	-0.4681221	-1.5922298
C	3.9233655	-0.8987507	2.0328481
H	4.0098517	-0.5867865	3.0776639
H	3.6282344	-1.9507252	2.0085550
H	3.1708958	-0.2751231	1.5439298
C	5.2470343	-0.7256418	1.3521228
O	6.2467713	-0.2810002	1.8923391
O	5.2246167	-1.1140296	0.0578767
H	4.3555268	-1.4469739	-0.2352585
