18
-0.0015218 (energy)
C	2.9651578	0.6998848	-0.3604438
O	3.8929347	0.7154493	0.4437119
H	2.4808390	1.6488729	-0.6509496
C	2.3282332	-0.5336045	-0.9567956
Cl	3.5402140	-1.8388637	-1.0821856
H	2.0167958	-0.2971820	-1.9793139
C	1.1400916	-0.9911259	-0.1051977
H	1.4533899	-1.2049178	0.9238109
H	0.7394684	-1.9232753	-0.5211226
N	0.0402392	-0.0153918	-0.0661842
H	0.2400180	0.6990827	0.6373982
H	-0.7991152	-0.4852233	0.2821879
O	7.1113581	3.4807382	2.3962530
H	6.4908285	3.3131432	3.1258519
C	6.3405944	3.8804789	1.2780295
H	7.0098371	4.0774078	0.4372248
H	5.7879404	4.7910509	1.5220237
H	5.6460292	3.0810486	1.0085469
