18
0.00102957 (energy)
C	2.1769099	-1.9324608	0.9688020
O	2.7894297	-1.9889218	2.0314923
H	2.6623240	-1.4839274	0.0840831
C	0.7408592	-2.3475273	0.7490693
Cl	0.3176716	-3.6743048	1.8666092
H	0.6533016	-2.7526119	-0.2641792
C	-0.2010411	-1.1574062	0.9556147
H	-0.0930453	-0.7413086	1.9645355
H	-1.2379279	-1.5002112	0.8568962
N	0.0023159	-0.0762122	-0.0205615
H	0.7795830	0.5160843	0.2801946
H	-0.8117614	0.5428351	0.0054946
O	6.2126947	-2.5167552	-1.3012212
H	5.2996319	-2.2283759	-1.1320664
C	6.9375796	-1.3765412	-1.7240059
H	7.9718352	-1.6667327	-1.9233136
H	6.9192385	-0.6193055	-0.9363773
H	6.4907241	-0.9778503	-2.6380607
