18
0.00116311 (energy)
C	-1.5865142	-2.3801130	1.1090330
O	-1.2102224	-3.4391937	1.6034330
H	-1.9287141	-2.3608541	0.0592402
C	-1.5508779	-1.0260679	1.7784330
Cl	-1.7458664	-1.2190257	3.5428220
H	-2.4138298	-0.4496111	1.4299447
C	-0.2366025	-0.3047770	1.4643552
H	0.6252887	-0.8967841	1.7951011
H	-0.2079526	0.6429738	2.0151205
N	-0.0693709	0.0078164	0.0369193
H	0.2904895	-0.8134443	-0.4544512
H	0.6733734	0.7048408	-0.0585182
O	0.4776822	-0.3392240	-3.8425737
H	1.3062580	0.0537043	-3.5192638
C	0.7093905	-1.7268099	-4.0013488
H	-0.2054691	-2.2005426	-4.3649813
H	0.9853512	-2.1635832	-3.0384491
H	1.5111115	-1.8825345	-4.7273816
