18
-0.00487573 (energy)
C	-1.9877347	0.0476412	2.3363562
O	-2.6074554	0.9758557	2.8482575
H	-1.0794068	-0.3388166	2.8314597
C	-2.2932640	-0.5953412	1.0036786
Cl	-4.0463406	-0.5046441	0.6768479
H	-2.0427802	-1.6588501	1.0717890
C	-1.5070301	0.0905668	-0.1177455
H	-1.7447037	1.1600586	-0.1669395
H	-1.7973444	-0.3493812	-1.0792850
N	-0.0499443	-0.0592059	0.0153844
H	0.3093189	0.6431979	0.6657476
H	0.3846244	0.1794291	-0.8795033
O	3.0572061	1.8285141	0.5271705
H	3.4628319	2.3868731	1.2121250
C	4.0095054	0.8409874	0.1775848
H	3.5839876	0.1940272	-0.5931268
H	4.2548703	0.2422302	1.0581453
H	4.9099192	1.3231459	-0.2108849
