18
0.00142025 (energy)
C	1.9252232	1.7063073	-1.6715113
O	3.0490029	1.4643477	-2.1030825
H	1.8122545	2.3291812	-0.7666341
C	0.6282027	1.1522110	-2.2132855
Cl	0.7836134	0.8559079	-3.9672450
H	-0.1466457	1.9161229	-2.0929487
C	0.2506801	-0.1422774	-1.4866481
H	1.0401688	-0.8962449	-1.5913484
H	-0.6554707	-0.5578969	-1.9433166
N	-0.0243489	0.0513598	-0.0548248
H	0.8556738	0.0599007	0.4656564
H	-0.5173621	-0.7735110	0.2960979
O	0.0318230	-1.2315695	4.2136223
H	-0.4813805	-1.1534865	3.3914394
C	1.3980805	-1.2902467	3.8473019
H	2.0049434	-1.3786222	4.7514735
H	1.6729496	-0.3766553	3.3144805
H	1.5683435	-2.1616192	3.2102375
