18
0.00176312 (energy)
C	3.0406986	0.3867941	-0.1283027
O	3.8156794	0.3696929	-1.0805585
H	2.9616575	-0.5000604	0.5249800
C	2.0790664	1.5009356	0.2133938
Cl	2.7538104	3.0659927	-0.3191835
H	1.9902735	1.5536530	1.3032420
C	0.7174094	1.2573673	-0.4444741
H	0.8152355	1.1828296	-1.5342428
H	0.0616306	2.1112890	-0.2367079
N	0.0393779	0.0486952	0.0481103
H	0.3987816	-0.7716379	-0.4451402
H	-0.9459121	0.0950501	-0.2233216
O	-0.8267724	-2.1781828	-3.9204132
H	-0.7033801	-1.8494994	-3.0136600
C	-1.9030496	-3.0973133	-3.8869534
H	-2.0688688	-3.4871687	-4.8939966
H	-2.8068136	-2.5890877	-3.5419631
H	-1.6573843	-3.9231330	-3.2147920
