18
-0.00429103 (energy)
C	2.1834074	0.0233246	-1.3492976
O	2.2150627	-0.5943263	-2.4100446
H	3.0261940	-0.0673035	-0.6414602
C	1.0321347	0.8614491	-0.8443987
Cl	0.1446745	1.5636262	-2.2255879
H	1.4443130	1.7025514	-0.2777522
C	0.0899990	0.0173049	0.0193293
H	-0.3023042	-0.8365046	-0.5462050
H	-0.7692987	0.6304581	0.3160539
N	0.7201306	-0.4860336	1.2493046
H	1.2515319	-1.3342064	1.0404291
H	-0.0158764	-0.7996899	1.8869047
O	0.1043704	-4.0823409	-1.8402243
H	-0.7304992	-4.5128287	-2.0914865
C	0.9124441	-4.0318458	-3.0015856
H	1.8620070	-3.5519896	-2.7532157
H	0.4043954	-3.4507429	-3.7750885
H	1.1021925	-5.0469344	-3.3589669
