18
0.00456668 (energy)
C	0.4774264	1.6420694	2.5470751
O	1.2753519	2.5440987	2.7865262
H	0.6891352	0.6190289	2.9049915
C	-0.7728988	1.7629313	1.7075017
Cl	-1.4261301	3.4201015	1.8315894
H	-1.5323712	1.0955099	2.1272429
C	-0.4750238	1.4168023	0.2454174
H	0.3023943	2.0735188	-0.1633199
H	-1.3803839	1.5773342	-0.3520335
N	-0.0578309	0.0200270	0.0499094
H	0.9404644	-0.0714005	0.2510583
H	-0.1369413	-0.2068617	-0.9445168
O	4.2246830	1.8373138	2.8017254
H	3.8645756	1.1354583	2.2332351
C	5.1901874	1.2357518	3.6444694
H	5.6161849	1.9999007	4.2988561
H	5.9841919	0.7970103	3.0352374
H	4.7135493	0.4629510	4.2525201
