18
-0.00383111 (energy)
C	-0.3488227	-0.0699743	-0.5548396
O	0.2756858	0.0074571	0.4995191
H	-0.2219603	0.7148225	-1.3213489
C	-1.3807619	-1.1181521	-0.9001353
Cl	-0.9890764	-2.6487453	-0.0681563
H	-1.3160815	-1.3208538	-1.9739885
C	-2.7829369	-0.6429996	-0.5072477
H	-2.8360433	-0.4197627	0.5651639
H	-3.5019568	-1.4467173	-0.7058505
N	-3.2276759	0.5431500	-1.2545835
H	-2.8452214	1.3859563	-0.8200496
H	-4.2400487	0.6379352	-1.1417231
O	-2.6843808	-0.7911969	3.9707279
H	-3.0894480	-1.5295671	4.4567214
C	-1.3103223	-1.0967155	3.8193528
H	-0.8234507	-0.2840811	3.2751096
H	-1.2028283	-2.0261394	3.2548022
H	-0.8485724	-1.2006291	4.8042992
