18
-0.00347471 (energy)
C	-0.8187223	-2.1419256	0.2330774
O	0.0700878	-2.7265673	-0.3800209
H	-1.5406225	-2.7246721	0.8320792
C	-1.0994454	-0.6580106	0.1884094
Cl	0.4194375	0.2358614	-0.0984867
H	-1.4624605	-0.3489431	1.1738685
C	-2.1209022	-0.3361663	-0.9067013
H	-1.7621954	-0.6681557	-1.8884519
H	-2.2553475	0.7506644	-0.9625444
N	-3.4429773	-0.9336713	-0.6651240
H	-3.4434777	-1.9057132	-0.9822164
H	-4.1249305	-0.4701019	-1.2706516
O	-0.0751769	0.0897310	3.7969241
H	0.1962684	-0.7583746	4.1874290
C	1.1079233	0.7869391	3.4527327
H	0.8377012	1.7482624	3.0094983
H	1.6790439	0.2016687	2.7279011
H	1.7058003	0.9577194	4.3513470
