11
-0.00432933 (energy)
C	-0.0239161	0.0739762	0.0314150
H	0.2847644	-0.8808221	-0.3740536
C	-0.7330962	0.9724446	-0.6485516
H	-1.0438836	0.7848437	-1.6698801
H	-1.0158640	1.9153667	-0.1921690
O	0.3736250	0.2977041	1.3176333
H	0.8748198	-0.4796639	1.6209991
C	3.1269097	1.1833754	0.2729377
H	2.9115222	1.4787487	1.3122135
H	3.0627165	1.9913108	-0.4733031
O	3.4182313	0.0337534	-0.0324147
