11
-0.00432903 (energy)
C	0.4596417	-1.0950694	0.7103461
H	1.3676050	-0.8765240	1.2573094
C	-0.1436150	-2.2818699	0.7213958
H	0.2575661	-3.1093000	1.2952495
H	-1.0535228	-2.4459758	0.1535208
O	-0.0349340	-0.0452535	-0.0077987
H	0.5544281	0.7182056	0.1237709
C	4.2820103	1.0716167	-0.6667119
H	4.3154008	2.1462323	-0.4262588
H	5.0277209	0.7258225	-1.4002635
O	3.4702096	0.3121855	-0.1529194
