11
-0.00409479 (energy)
C	0.0357828	-0.0368484	-0.0662808
H	-0.4260601	0.4387474	0.7891945
C	-0.6411125	-0.7124786	-0.9924952
H	-1.7178529	-0.8213710	-0.9319353
H	-0.1264220	-1.1701353	-1.8309394
O	1.3912949	0.1076704	-0.1307150
H	1.6785876	0.6310066	0.6381219
C	4.1405940	-1.0704465	-0.8354641
H	3.9395124	-2.1091115	-0.5281004
H	4.2119376	-0.9021495	-1.9218996
O	4.2757784	-0.1635282	-0.0236985
