11
-0.00403937 (energy)
C	-0.0375234	0.0724237	0.0194465
H	0.4467846	-0.8623366	-0.2315462
C	-0.9812887	0.6410802	-0.7278642
H	-1.3190609	0.1815692	-1.6496312
H	-1.4338454	1.5806056	-0.4281490
O	0.3966532	0.6404052	1.1819172
H	1.0822066	0.0649227	1.5644932
C	4.0735362	0.8384388	0.7339802
H	5.0010296	1.3503628	0.4316209
H	3.6634841	1.1371736	1.7119222
O	3.5343590	-0.0062526	0.0300460
