11
-0.00401344 (energy)
C	-0.7446962	-0.0884888	-1.1630289
H	-1.5412954	-0.8169239	-1.0846697
C	-0.5103874	0.6376103	-2.2540908
H	-1.1240193	0.5305385	-3.1411570
H	0.3034673	1.3548417	-2.2778472
O	0.0202156	0.0365913	-0.0397679
H	-0.3208365	-0.5807310	0.6311454
C	3.2924438	-0.0966475	0.1737404
H	2.7707785	-1.0135413	-0.1439110
H	2.6991210	0.8300788	0.1198678
O	4.4542390	-0.1068768	0.5608659
