11
-0.00398594 (energy)
C	-0.7757877	-0.8785243	0.7357904
H	-0.3609197	-1.0676909	1.7173345
C	-1.9030585	-1.4290626	0.2900275
H	-2.4752261	-2.1125161	0.9068017
H	-2.2739210	-1.2038444	-0.7044988
O	-0.0460872	-0.0166421	-0.0304646
H	0.7314373	0.2641223	0.4834956
C	3.3558358	-1.0409301	-0.6877990
H	3.0648021	-1.1150729	-1.7477677
H	3.5520005	-1.9993480	-0.1811329
O	3.4546941	0.0349708	-0.1112550
