11
-0.00397189 (energy)
C	-0.0118782	0.0637183	-0.0532001
H	0.1414318	-0.7586829	0.6334443
C	-0.4414247	1.2678798	0.3183120
H	-0.6643715	1.4879919	1.3559729
H	-0.5777899	2.0573689	-0.4134368
O	0.2723336	-0.2264292	-1.3560771
H	0.5674031	-1.1527838	-1.4043391
C	3.3308932	0.8127524	-0.9383834
H	3.7564504	1.8249294	-0.8482159
H	2.8968704	0.5659293	-1.9204519
O	3.3397086	0.0152563	-0.0090498
