11
-0.00550565 (energy)
C	-0.0281178	-0.0479249	0.0628010
H	0.3347933	0.5706334	-0.7477603
C	-0.8618911	0.3833723	1.0069096
H	-1.2272794	1.4038543	1.0085387
H	-1.1943372	-0.2809111	1.7978281
O	0.4392658	-1.3300396	0.0492042
H	1.0285136	-1.4311787	-0.7189663
C	3.2938652	0.0620744	1.2679362
H	3.1609188	0.9826634	1.8583364
H	3.4507494	-0.8584271	1.8525901
O	3.2689226	0.0619664	0.0435520
