11
-0.0037711 (energy)
C	-1.1402409	-0.6216182	-0.4779962
H	-1.3186786	-1.5749750	0.0022111
C	-1.9286919	-0.1082796	-1.4199967
H	-2.8121347	-0.6360383	-1.7604293
H	-1.7020586	0.8534488	-1.8683945
O	-0.0252185	0.0324330	-0.0405119
H	0.4002364	-0.5147346	0.6429527
C	3.0882706	1.2843614	0.0150578
H	2.9750904	1.8532988	-0.9215487
H	3.2187710	1.8903108	0.9258546
O	3.0702230	0.0601518	0.0419677
