11
-0.00373029 (energy)
C	-0.0170529	-0.0813882	-0.0107945
H	0.2030461	0.9690755	0.1285282
C	0.1141186	-0.7172943	-1.1730999
H	0.4574566	-0.1981236	-2.0604982
H	-0.1210761	-1.7732778	-1.2563299
O	-0.4482453	-0.7231935	1.1137541
H	-0.4709279	-0.0783512	1.8425833
C	3.3977520	0.3494370	-0.0194284
H	2.7953193	-0.5116103	0.3113338
H	4.4336304	0.1185964	-0.3151048
O	2.9461237	1.4871688	-0.0559952
