11
-0.00367488 (energy)
C	-0.0811307	0.0179507	0.0112668
H	0.9660096	-0.2137361	-0.1341520
C	-0.9178486	0.3162464	-0.9804284
H	-0.5802438	0.3419362	-2.0101166
H	-1.9597993	0.5408203	-0.7773275
O	-0.4933009	-0.0178448	1.3117609
H	0.2705415	-0.2543851	1.8668478
C	4.2665176	0.6263646	-1.1297580
H	5.1381294	0.2149060	-1.6633553
H	3.8886503	1.5891945	-1.5091403
O	3.7520326	0.0518573	-0.1784508
