11
-0.00526604 (energy)
C	-0.7162233	-0.2168813	-1.1640557
H	-0.3332084	-1.0560847	-1.7300641
C	-1.7569430	0.5203405	-1.5460804
H	-2.2851800	0.3089046	-2.4686612
H	-2.0993310	1.3518718	-0.9388976
O	-0.0425487	0.0386433	-0.0050388
H	0.6752781	-0.6132972	0.0799698
C	2.9091715	1.1786707	0.4254151
H	2.9205468	1.6038446	1.4416971
H	2.4409999	1.8087223	-0.3476349
O	3.3851425	0.0791487	0.1719555
