11
-0.00360111 (energy)
C	0.8014732	0.9236392	0.6477424
H	1.8227013	0.9017169	0.2900541
C	0.3687329	1.7457141	1.6014013
H	1.0379818	2.4523655	2.0785223
H	-0.6676382	1.7251149	1.9221119
O	-0.0305981	0.0294079	0.0390898
H	0.4856147	-0.4667243	-0.6203836
C	4.9614179	-1.3713131	-0.7367212
H	4.8431078	-2.4560023	-0.5844609
H	5.9048931	-1.0586948	-1.2119900
O	4.1016200	-0.5668174	-0.4001604
