11
-0.00345334 (energy)
C	-0.0960685	0.9270479	-1.0229330
H	-0.1988341	1.9381349	-0.6508168
C	-0.0658419	0.6139626	-2.3166101
H	-0.1450022	1.3788994	-3.0804819
H	0.0391489	-0.4181985	-2.6343602
O	0.0026079	-0.0262137	-0.0513335
H	-0.0413892	0.4160303	0.8146992
C	3.1063757	-1.0434182	-0.7169307
H	4.0234699	-1.5417486	-1.0695445
H	2.1633981	-1.4392000	-1.1266940
O	3.1333291	-0.1117709	0.0774531
