11
-0.00344893 (energy)
C	-0.0789086	0.0283621	-0.0006180
H	0.9395518	-0.3377022	0.0073581
C	-0.7724161	0.2629703	-1.1126174
H	-0.3373464	0.0935882	-2.0908397
H	-1.7921703	0.6302731	-1.0622708
O	-0.6147810	0.2374216	1.2369544
H	0.0563523	0.0049445	1.9025838
C	4.7981163	-0.1957888	-0.6674603
H	4.9317753	-0.8929400	-1.5099844
H	5.6962296	0.3698608	-0.3721826
O	3.7230352	-0.0587536	-0.0972315
