11
-0.00339012 (energy)
C	-0.0239161	-0.0603006	0.0531340
H	0.2847644	0.7179891	-0.6326574
C	-0.7330962	0.1645871	1.1572289
H	-1.0438836	1.1666863	1.4294483
H	-1.0158640	-0.6544835	1.8103066
O	0.3736250	-1.3168875	-0.3009859
H	0.8748198	-1.2544980	-1.1331153
C	3.8220505	0.4234364	0.9027889
H	3.7770519	0.0128698	1.9241319
H	4.5939876	1.1909675	0.7331865
O	3.0646031	0.0514949	0.0152801
