11
-0.00338781 (energy)
C	-0.0510850	-1.2689860	-0.5496396
H	0.0286497	-1.2512202	-1.6288314
C	-0.1830653	-2.3848246	0.1645187
H	-0.2179167	-3.3563571	-0.3148610
H	-0.2588069	-2.3444292	1.2461731
O	-0.0058625	-0.0397371	0.0414208
H	0.0930414	0.6306563	-0.6573773
C	3.5039779	-0.2446025	0.8820617
H	2.5214950	0.1120460	1.2302862
H	3.7464314	-1.2893496	1.1340055
O	4.2750846	0.4723700	0.2566947
