11
-0.00333226 (energy)
C	-1.2389195	0.0552295	-0.6140579
H	-1.6412684	-0.9294912	-0.8134795
C	-1.8659267	1.1878461	-0.9248280
H	-2.8370596	1.1771004	-1.4061598
H	-1.4155710	2.1494591	-0.7016130
O	-0.0161551	0.0548086	-0.0080071
H	0.2563938	-0.8698518	0.1270789
C	3.7397900	0.9447115	0.2532269
H	2.6610585	0.7678300	0.3902769
H	4.0346817	1.9973330	0.1161769
O	4.5565486	0.0322182	0.2532269
