11
-0.00332719 (energy)
C	-0.0155934	-0.0106156	-0.0817038
H	0.1856679	0.1263980	0.9728337
C	-1.0747416	-0.6644061	-0.5542497
H	-1.8067576	-1.1030839	0.1140385
H	-1.2276495	-0.7720480	-1.6230701
O	0.9132766	0.5462657	-0.9120857
H	1.5961898	0.9710421	-0.3637039
C	5.2077289	0.6607814	-0.3421589
H	5.6975419	1.5154099	0.1512220
H	5.6710761	0.3270967	-1.2843477
O	4.2145552	0.1179558	0.1254790
