11
-0.00328854 (energy)
C	1.2656211	0.6208020	-0.0717327
H	2.2035642	0.0843792	-0.0097511
C	0.0720135	0.0349228	-0.0040354
H	-0.0195844	-1.0379869	0.1199383
H	-0.8378682	0.6221670	-0.0718900
O	1.3948417	1.9704070	-0.2276777
H	2.3440841	2.1845444	-0.2524211
C	6.0041249	-0.1471010	0.4588952
H	6.9383291	-0.6841482	0.2296047
H	6.1278790	0.8406045	0.9309956
O	4.9017451	-0.6166638	0.2058961
