11
-0.00327123 (energy)
C	-0.0228389	-0.0755129	0.0284175
H	0.2719384	0.8991187	-0.3383629
C	-0.8487406	-0.2608997	1.0560627
H	-1.2774084	0.5797233	1.5894404
H	-1.1109356	-1.2619820	1.3823031
O	0.5236240	-1.1250368	-0.6515297
H	1.0909635	-0.7682089	-1.3574531
C	3.2900036	0.9589326	0.9972467
H	3.1563679	2.0413092	0.8412537
H	3.4039105	0.6408535	2.0458681
O	3.3105605	0.1625364	0.0671557
