11
-0.00326468 (energy)
C	-0.0196088	-0.0623673	0.0525088
H	0.2334788	0.7425971	-0.6252133
C	-0.9366610	0.0389263	1.0123480
H	-1.4891795	0.9588936	1.1649204
H	-1.1508119	-0.8012950	1.6646610
O	0.6829329	-1.2146773	-0.1501419
H	1.2941380	-1.0717917	-0.8941447
C	4.8520029	0.4063526	-0.3788092
H	5.6387569	0.4598381	0.3905339
H	5.1839561	0.5987113	-1.4115537
O	3.6863276	0.1501865	-0.1043663
