11
-0.00512561 (energy)
C	-0.0143962	-0.0771131	0.0296257
H	0.1714126	0.9181725	-0.3527485
C	-0.9922237	-0.3711916	0.8839720
H	-1.6680361	0.3943104	1.2475364
H	-1.1333915	-1.3879657	1.2355213
O	0.8431559	-1.0313146	-0.4357282
H	1.4736355	-0.6044049	-1.0421700
C	4.7869016	-0.6884229	0.5745028
H	5.7097568	-0.3056695	1.0387973
H	4.6550698	-1.7815999	0.6111130
O	3.9626595	0.0518122	0.0525680
