11
-0.00321021 (energy)
C	0.0263772	0.0738458	-0.0297054
H	-0.3140686	-0.8792689	0.3536970
C	-0.7605101	0.9399533	-0.6646878
H	-1.8096344	0.7253832	-0.8325952
H	-0.3659303	1.8828343	-1.0288673
O	1.3486823	0.3317143	0.1881558
H	1.7322806	-0.4259161	0.6639462
C	4.7019680	0.0062286	-1.4147210
H	5.0534135	0.9896220	-1.7656551
H	4.6758175	-0.7884729	-2.1772966
O	4.3630158	-0.1904013	-0.2544680
