11
-0.00314122 (energy)
C	0.0373181	-0.0256736	-0.0705662
H	-0.4443397	0.3056916	0.8402198
C	-0.4204940	-1.0178007	-0.8312425
H	-1.3233215	-1.5561923	-0.5667962
H	0.1031992	-1.3091820	-1.7357795
O	1.1725469	0.6601120	-0.3921311
H	1.3240906	1.3358932	0.2918882
C	4.2486875	-1.0335988	0.0975954
H	4.0204520	-1.9501396	0.6646868
H	3.5427518	-0.7878547	-0.7117380
O	5.2220705	-0.3346295	0.3499963
