11
-0.00308701 (energy)
C	0.0560050	0.0605189	-0.0152403
H	-0.6668422	-0.7205878	0.1814637
C	-0.1832771	1.1102925	-0.7983468
H	-1.1409719	1.2360331	-1.2901851
H	0.5790497	1.8650907	-0.9610807
O	1.2572089	-0.1096601	0.6097388
H	1.2174143	-0.9334486	1.1267658
C	4.8234767	-0.3550919	-0.6366030
H	4.5447489	-0.1866485	-1.6890615
H	3.9828309	-0.4219091	0.0723441
O	5.9898378	-0.4609892	-0.2786553
