11
-0.00266752 (energy)
C	0.8559218	0.5485362	-0.9792054
H	0.6810700	1.4983825	-1.4676183
C	0.0483764	0.0314301	-0.0556211
H	-0.8483070	0.5522264	0.2600128
H	0.2722971	-0.9264588	0.4022580
O	1.9877447	-0.0967576	-1.3854360
H	2.4255006	0.4517716	-2.0599830
C	5.3877042	-1.4108113	-0.0549342
H	5.6518293	-2.3917327	-0.4812701
H	4.5170404	-0.9135615	-0.5114900
O	6.0196944	-0.9068224	0.8650237
