11
-0.002332 (energy)
C	0.2893419	0.8288284	1.1052883
H	0.9451667	0.5423027	1.9171535
C	0.0166410	0.0467980	0.0628877
H	0.4510406	-0.9424135	-0.0245910
H	-0.6491823	0.3851978	-0.7242017
O	-0.2508439	2.0761107	1.2275040
H	0.0775597	2.4704308	2.0546622
C	3.5174172	-0.2447624	0.0367614
H	2.8142277	0.5338716	-0.2993708
H	3.8025140	-0.9879103	-0.7249518
O	3.9530727	-0.2817504	1.1806911
