11
-0.00214681 (energy)
C	0.6820022	0.0521316	-1.2347035
H	0.7708074	0.9476390	-1.8359592
C	0.0386383	0.0033108	-0.0701281
H	-0.4405080	0.8834842	0.3429198
H	-0.0195518	-0.9229054	0.4920837
O	1.2893894	-1.0485501	-1.7657694
H	1.6957659	-0.7932085	-2.6126383
C	3.5365847	0.4680797	0.2971034
H	3.5992665	-0.4537302	-0.3029540
H	3.8382575	0.3692951	1.3520873
O	3.1569385	1.5315276	-0.1769073
