11
-0.00484975 (energy)
C	0.0444746	-0.0505979	-0.0499322
H	-0.5295516	0.6024607	0.5945340
C	-0.5011322	-0.9150014	-0.9029599
H	-1.5770949	-1.0083471	-0.9950778
H	0.1229900	-1.5467652	-1.5264105
O	1.3974064	0.0767796	0.0757692
H	1.5780117	0.7575986	0.7476288
C	4.8974641	0.9289115	0.2653729
H	5.9799784	1.0788835	0.1260796
H	4.5796869	-0.1131979	0.4290230
O	4.1006104	1.8584917	0.2399986
