11
-0.00467886 (energy)
C	-0.0280900	-0.0120479	-0.0780844
H	0.3344623	0.1434520	0.9297370
C	-0.7345906	-1.0758139	-0.4546413
H	-0.9874462	-1.8591155	0.2506229
H	-1.0733737	-1.1810170	-1.4800696
O	0.2969337	0.9810480	-0.9559059
H	0.8101375	1.6551576	-0.4766085
C	3.3110971	-1.1861058	-0.2347882
H	4.2699164	-1.6111457	0.1024625
H	2.6698192	-1.8654272	-0.8187752
O	2.9802098	-0.0353852	0.0223005
