11
-0.00455445 (energy)
C	-0.0784685	0.0281399	-0.0090668
H	0.9343107	-0.3350571	0.1079570
C	-1.1400235	-0.7659581	-0.1317281
H	-1.0373047	-1.8449404	-0.1198587
H	-2.1344838	-0.3474015	-0.2466360
O	-0.1939951	1.3878920	-0.0224158
H	0.6953451	1.7700466	0.0803460
C	4.4343473	-0.6901405	-0.9231253
H	4.0870715	-0.9078244	-1.9457418
H	5.4678622	-0.9976037	-0.6971402
O	3.7193123	-0.1429457	-0.0930400
