11
-0.00246702 (energy)
C	1.1946839	0.6537271	-0.2476733
H	2.0383894	0.2432257	0.2942951
C	1.2770407	1.6915644	-1.0807504
H	2.2315424	2.1800123	-1.2508060
H	0.4150902	2.0810278	-1.6098463
O	0.0431275	-0.0237756	0.0299972
H	-0.6844638	0.3773357	-0.4760776
C	1.0447537	-3.2531666	2.0250734
H	1.0680019	-3.7909495	1.0638344
H	0.7155095	-2.2030602	1.9737827
O	1.3635904	-3.7869846	3.0801187
