11
0.000611064 (energy)
C	0.0058841	-0.0798241	0.0253253
H	-0.0700608	0.9504520	-0.3015442
C	1.1108726	-0.8178195	-0.0854435
H	2.0083038	-0.3935265	-0.5249506
H	1.1575848	-1.8471015	0.2506802
O	-1.1678578	-0.5230838	0.5620225
H	-1.0537678	-1.4482086	0.8404441
C	3.0809644	-4.7528145	0.8081602
H	1.9916277	-4.9155160	0.7835645
H	3.4286512	-3.8005153	0.3768876
O	3.8537624	-5.5755494	1.2831650
