11
0.000702891 (energy)
C	0.0694892	-0.0295395	0.0366954
H	-0.8273962	0.3517212	-0.4369258
C	1.0644960	0.7403896	0.4783708
H	1.0067953	1.8194269	0.3738573
H	1.9507316	0.3305484	0.9486893
O	0.0505062	-1.3913063	0.1228563
H	0.8712613	-1.6880825	0.5525956
C	4.7441884	0.2675050	3.3194548
H	5.1595341	-0.1549688	2.3906195
H	3.6478264	0.2169775	3.4153364
O	5.4537812	0.7603645	4.1873871
