11
0.000713603 (energy)
C	-0.1259450	0.3189380	-1.3721419
H	-0.9582367	0.0069057	-1.9918245
C	-0.0058321	0.0190497	-0.0784857
H	-0.7694252	-0.5721318	0.4175019
H	0.8388671	0.3453099	0.5170142
O	0.7788120	1.0542170	-2.0813477
H	1.5053458	1.3115479	-1.4877819
C	3.5648613	-1.9773372	-0.9176443
H	4.5123599	-2.2159845	-1.4265895
H	3.3767733	-0.9060504	-0.7423637
O	2.7735585	-2.8449202	-0.5699684
