11
0.000723396 (energy)
C	-0.6942679	-1.1603416	-0.4146765
H	-1.6565559	-1.1440361	-0.9124877
C	-0.0385641	-0.0673267	-0.0231697
H	-0.4645522	0.9159244	-0.1973110
H	0.9237283	-0.1142764	0.4731887
O	-0.2416855	-2.4359041	-0.2406008
H	0.6209256	-2.4022788	0.2079105
C	4.3999989	-0.1714203	0.7906025
H	3.6930754	-0.0122840	1.6204616
H	5.2107846	-0.8905041	0.9888469
O	4.2917884	0.4120248	-0.2806683
