11
0.000728214 (energy)
C	-0.9638841	-0.9324420	-0.4492623
H	-1.9709540	-0.9989736	-0.0549733
C	-0.0541220	-0.0539625	-0.0267539
H	-0.3023241	0.6530743	0.7587831
H	0.9467457	-0.0105519	-0.4402294
O	-0.7469403	-1.8578713	-1.4283991
H	0.1655670	-1.7618188	-1.7516566
C	3.5125601	-3.1922969	-0.4905889
H	4.5942257	-2.9840334	-0.4716878
H	2.8581292	-2.3183567	-0.3432641
O	3.0673742	-4.3199264	-0.6637944
