11
0.000766329 (energy)
C	-0.1555133	-0.6122479	-1.2654348
H	0.5088111	-0.4437940	-2.1047062
C	-0.0101949	-0.0358072	-0.0719084
H	0.8125050	0.6497990	0.1060882
H	-0.6911163	-0.2234485	0.7501131
O	-1.1546441	-1.4852252	-1.5845607
H	-1.7240128	-1.6060415	-0.8050649
C	2.1121284	-2.8651567	-4.0805836
H	2.0622202	-2.6746174	-5.1645279
H	2.6086958	-2.0836982	-3.4835080
O	1.6467207	-3.8779537	-3.5732604
