11
0.000785376 (energy)
C	0.0177625	0.0009509	0.0820455
H	-0.2114956	-0.0113220	-0.9769021
C	-0.5529317	0.8273941	0.9590895
H	-1.2970006	1.5451337	0.6277511
H	-0.3034957	0.8169639	2.0137248
O	0.9603160	-0.9326987	0.4015520
H	1.1340778	-0.8859421	1.3575916
C	2.7909050	-0.3784457	-3.4961635
H	2.4418759	0.0867637	-4.4318399
H	3.4860177	-1.2245821	-3.6171073
O	2.4303035	0.0184629	-2.3951780
