11
0.000792146 (energy)
C	-0.2361887	1.3767019	-0.2219548
H	0.1228667	2.1647768	0.4292726
C	-0.0143339	0.0784522	-0.0140250
H	0.5570071	-0.2456205	0.8503361
H	-0.3863356	-0.6884968	-0.6833430
O	-0.9407706	1.8802221	-1.2765754
H	-1.2422332	1.1405259	-1.8318778
C	3.9300918	0.8451974	0.9508423
H	3.7467953	0.8273664	2.0370356
H	4.9287375	0.5061596	0.6322267
O	3.0805229	1.2170429	0.1510283
