11
0.00081566 (energy)
C	0.0566253	0.0068418	-0.0616007
H	-0.6742282	-0.0814636	0.7334687
C	-0.2379476	0.3804504	-1.3072129
H	-1.2621116	0.6184340	-1.5774454
H	0.5149051	0.4600538	-2.0827507
O	1.3104952	-0.3115535	0.3727124
H	1.9310067	-0.2187182	-0.3707512
C	5.0869949	-0.2830655	-2.9081958
H	5.7638384	-1.0148726	-2.4390770
H	4.0845680	-0.2065675	-2.4575915
O	5.4262324	0.3997632	-3.8665286
