11
0.000846031 (energy)
C	0.0366876	-1.3787396	0.3131905
H	-0.8229108	-1.9454933	0.6507714
C	0.0036486	-0.0789619	0.0175675
H	-0.9238654	0.4777494	0.1090236
H	0.8804225	0.4624368	-0.3181968
O	1.1515219	-2.1612830	0.2297446
H	1.8950341	-1.6133279	-0.0757484
C	5.8649242	-1.9293021	0.3565508
H	6.1698272	-2.2648397	-0.6475309
H	4.8498068	-1.5072133	0.4282003
O	6.6049416	-2.0194822	1.3281375
