11
0.000932248 (energy)
C	-0.0054880	-0.0484290	0.0683549
H	0.0653451	0.5766363	-0.8138901
C	-1.1567224	-0.4099883	0.6356651
H	-2.1003762	-0.0763891	0.2151858
H	-1.1969434	-1.0368393	1.5188542
O	1.2277631	-0.4163167	0.5221646
H	1.1160779	-0.9738039	1.3115475
C	3.5557679	-1.6248240	3.2536638
H	2.6111976	-1.9478096	3.7197094
H	4.0469263	-0.7594132	3.7265100
O	4.0282286	-2.1900117	2.2753578
