11
0.00100603 (energy)
C	-0.0859607	-1.3754069	0.3181567
H	-0.5351643	-2.1191567	-0.3292476
C	-0.0041911	-0.0784555	0.0195980
H	-0.4013402	0.2907908	-0.9208825
H	0.4512425	0.6433657	0.6875329
O	0.3828979	-1.9329663	1.4720598
H	0.7757826	-1.2317424	2.0200720
C	3.3859709	1.4024364	3.7185564
H	2.9978066	2.0705150	4.5038783
H	2.7088903	0.5905298	3.4085153
O	4.4959325	1.5522906	3.2233111
