11
0.00101786 (energy)
C	0.0753077	-0.0287875	-0.0234073
H	-0.8966765	0.3427682	0.2787071
C	0.6987681	0.3381402	-1.1434822
H	0.2341447	1.0507877	-1.8178948
H	1.6718322	-0.0506296	-1.4202256
O	0.5770637	-0.9156198	0.8843165
H	1.4466532	-1.2216054	0.5735465
C	2.5491634	3.1521500	-1.9462599
H	1.6019557	3.7096934	-2.0215885
H	3.1326387	3.0793482	-2.8779317
O	2.9281804	2.6470551	-0.8969916
