11
0.00114357 (energy)
C	-0.5573246	1.2666197	0.0321670
H	-1.6243813	1.2702675	0.2204664
C	0.1708420	2.3679765	-0.1540941
H	-0.3005765	3.3453742	-0.1219672
H	1.2378717	2.3336920	-0.3407887
O	-0.0566996	-0.0026648	0.0101562
H	0.8998628	0.0422928	-0.1611864
C	4.7456961	1.4983576	-1.3805871
H	4.0158535	2.3186372	-1.4711550
H	4.4510883	0.6721424	-0.7140058
O	5.8131568	1.5045266	-1.9807775
