11
-0.00364328 (energy)
C	0.2991909	-1.0784223	-0.8647816
H	0.1483290	-2.1200814	-0.6073576
C	0.0176196	-0.0607039	-0.0506112
H	-0.3889410	-0.2496209	0.9381216
H	0.1791470	0.9724121	-0.3355023
O	0.8115243	-0.9421146	-2.1222106
H	0.9299481	0.0050919	-2.3097380
C	4.1578689	0.4938029	-2.9183222
H	4.9135863	0.0478452	-2.2521809
H	4.0170830	-0.0156975	-3.8849372
O	3.5171123	1.4893702	-2.6052478
