11
0.0011743 (energy)
C	-0.3942237	-1.0708650	-0.7834580
H	-1.3954201	-0.9730303	-1.1860922
C	0.4013306	-2.1168818	-1.0089547
H	0.0583084	-2.9393068	-1.6290568
H	1.3993833	-2.1875371	-0.5924438
O	-0.0534907	0.0077351	-0.0200999
H	0.8489354	-0.1227622	0.3189997
C	2.5691578	0.1643208	3.8469243
H	3.4894678	-0.4141014	4.0263361
H	2.4067466	0.4874520	2.8062684
O	1.7794309	0.4303351	4.7443130
