11
0.00117673 (energy)
C	-0.2442942	-1.3450465	0.2171197
H	0.6150325	-1.9801827	0.0375655
C	-1.4356627	-1.7960490	0.6110034
H	-1.5907933	-2.8584672	0.7715521
H	-2.2781787	-1.1363823	0.7830188
O	0.0472287	-0.0314584	-0.0102426
H	-0.7495531	0.4992672	0.1625581
C	3.6320845	-1.7408077	1.2681101
H	4.5047838	-2.4130351	1.2835206
H	2.9640010	-1.8099765	2.1414004
O	3.4188663	-0.9682797	0.3421093
