11
0.00117762 (energy)
C	0.0321258	0.0642498	-0.0434485
H	-0.3825169	-0.7650114	0.5173342
C	-0.6934776	1.0692708	-0.5347110
H	-1.7682169	1.0910923	-0.3829446
H	-0.2508537	1.8863222	-1.0924689
O	1.3848134	-0.0509511	-0.1818616
H	1.7124531	0.7116191	-0.6893356
C	4.2252776	0.9873518	1.7162039
H	3.4477514	1.7443669	1.5261712
H	5.2439795	1.2633669	1.4002641
O	3.9739935	-0.0890494	2.2434189
