11
0.00120096 (energy)
C	-0.0363228	-0.0128706	-0.0745847
H	0.4324896	0.1532480	0.8880677
C	0.1160739	0.7915393	-1.1270136
H	0.7407150	1.6762266	-1.0513448
H	-0.3658381	0.5999544	-2.0786641
O	-0.7986459	-1.1447055	-0.0720551
H	-1.1982915	-1.2535146	-0.9523022
C	3.2103974	-1.4988433	1.0036554
H	3.7413000	-1.4645995	0.0389269
H	3.6127525	-0.8411638	1.7906269
O	2.2379579	-2.2198069	1.1888898
