11
0.00121266 (energy)
C	1.0379850	-0.6564397	0.6384707
H	1.4570335	-1.4743473	0.0644450
C	1.4669495	-0.2983809	1.8491275
H	2.2840681	-0.8366010	2.3194574
H	1.0280670	0.5250577	2.4004113
O	0.0204160	-0.0429420	-0.0326231
H	-0.3240164	0.6815199	0.5177516
C	1.9229920	3.5559297	-0.3206042
H	0.9964522	3.3592203	0.2420330
H	1.9506472	4.5097315	-0.8712886
O	2.8596224	2.7670652	-0.3330667
