11
0.00124159 (energy)
C	0.0748867	0.0077705	0.0371415
H	-0.8916627	-0.0925225	-0.4422371
C	0.9407395	-0.9951287	0.1868031
H	0.6960675	-1.9864883	-0.1818642
H	1.9015385	-0.8651045	0.6710981
O	0.2914888	1.2850698	0.4658408
H	1.1669592	1.3281652	0.8878424
C	4.1650337	-0.3130174	2.5799828
H	3.6977157	0.6820004	2.5072873
H	4.9609584	-0.5184951	1.8464717
O	3.8226445	-1.1357132	3.4200306
