11
0.0012521 (energy)
C	0.0659096	-0.0317007	-0.0412173
H	-0.7847748	0.3774550	0.4907674
C	0.7987025	-1.0551020	0.3987497
H	0.5574895	-1.5321951	1.3436159
H	1.6451412	-1.4435911	-0.1555069
O	0.2901530	0.6309098	-1.2129064
H	1.0594150	0.2316176	-1.6547126
C	3.1259468	-0.6202093	-3.8773038
H	3.5463530	-0.8919510	-2.8959036
H	3.3024398	0.4188447	-4.1981978
O	2.5039890	-1.4197232	-4.5655515
