11
0.0012569 (energy)
C	-0.7996395	-0.3224528	-1.0828534
H	-0.7220850	-1.3584598	-1.3906760
C	-1.5858449	0.5753677	-1.6775853
H	-2.1997938	0.2863690	-2.5250051
H	-1.6430434	1.6060531	-1.3474358
O	0.0060192	-0.0555444	-0.0142717
H	-0.0955297	0.8815289	0.2265029
C	2.5968186	-0.7481159	2.2842761
H	2.4242713	0.1435620	2.9078699
H	2.6392360	-1.7059999	2.8268762
O	2.7324111	-0.6791471	1.0691230
