11
-0.00328804 (energy)
C	0.8128904	-0.9212918	0.7005624
H	1.0248939	-1.9260019	0.3545970
C	0.0467711	-0.0516560	0.0412436
H	-0.4089186	-0.3328635	-0.9031308
H	-0.1479767	0.9479230	0.4120504
O	1.4270479	-0.6612266	1.8910958
H	1.2098592	0.2474940	2.1621070
C	1.9559730	0.4161268	5.6357644
H	1.8366073	-0.4332310	6.3271937
H	2.9903746	0.7642094	5.4854060
O	1.0025333	0.9384553	5.0719695
