11
0.00130027 (energy)
C	0.1449528	-0.2957652	-1.3444264
H	-0.7839820	-0.2658738	-1.9014424
C	1.3288485	-0.5879349	-1.8838096
H	1.4046308	-0.8149714	-2.9427172
H	2.2424953	-0.6102857	-1.3012869
O	-0.0507846	0.0022932	-0.0272168
H	0.8059881	-0.0363943	0.4319507
C	3.5111806	-2.2217731	1.9289678
H	2.5322539	-1.7727851	2.1610099
H	4.3403748	-1.5090766	1.7938509
O	3.6672157	-3.4322243	1.8279728
