11
0.0013885 (energy)
C	-1.3576672	0.2634785	-0.0573541
H	-1.6307772	1.2380363	0.3295932
C	-2.2317695	-0.6158689	-0.5478639
H	-3.2898736	-0.3747567	-0.5770962
H	-1.9292340	-1.5844559	-0.9285136
O	-0.0117656	0.0523401	0.0211466
H	0.1867286	-0.8306746	-0.3356112
C	3.4818163	-1.8841170	-2.0967084
H	4.0471455	-2.7891340	-2.3707127
H	2.3947089	-2.0202772	-1.9808904
O	4.0254849	-0.7992237	-1.9318754
