11
0.00140448 (energy)
C	-1.0874500	-0.5860958	0.6244317
H	-2.0410881	-0.1660789	0.3273789
C	-0.9510797	-1.5757350	1.5075646
H	-1.8271124	-2.0116327	1.9778131
H	0.0168117	-1.9762276	1.7857277
O	-0.0493409	0.0241382	-0.0175473
H	0.7830763	-0.3830909	0.2784881
C	1.9613077	-1.1659611	3.9656106
H	2.4843926	-0.8359070	3.0539211
H	2.0413816	-2.2402456	4.1963848
O	1.3328256	-0.3904990	4.6751230
