11
0.00141694 (energy)
C	0.0752693	0.0277997	-0.0246898
H	-0.8962191	-0.3310062	0.2939773
C	0.8825051	-0.6390284	-0.8502909
H	0.5808546	-1.6034596	-1.2470948
H	1.8499661	-0.2549299	-1.1520691
O	0.3653701	1.2430424	0.5241450
H	1.2425746	1.5248540	0.2119184
C	3.3532711	-0.8055676	1.9536843
H	2.6623312	-0.1947174	2.5563413
H	4.4205829	-0.5501808	2.0505292
O	2.9611145	-1.7081750	1.2248139
