11
0.00142492 (energy)
C	0.0659197	0.0492787	0.0165556
H	-0.7848947	-0.5867525	-0.1971248
C	0.0556673	1.0299554	0.9199240
H	-0.8425240	1.2321882	1.4951875
H	0.9228583	1.6508011	1.1125716
O	1.1435832	-0.2800441	-0.7531073
H	1.8804769	0.3140226	-0.5284668
C	4.5409381	-2.2610954	-2.3167150
H	4.8309292	-3.2906564	-2.0528196
H	5.2800714	-1.6960986	-2.9068136
O	3.4686129	-1.7770151	-1.9768271
