11
-0.00295285 (energy)
C	1.3528207	0.3215500	-0.2585321
H	2.0013996	-0.2625369	-0.9006130
C	0.0773140	0.0196826	-0.0138584
H	-0.3724320	-0.8575542	-0.4685649
H	-0.5481328	0.6231973	0.6335743
O	2.0049839	1.3999285	0.2648951
H	1.3871677	1.8929404	0.8320224
C	5.1745526	1.4869258	2.0503289
H	5.3791433	1.8726056	1.0388324
H	4.2748021	0.8583650	2.1458083
O	5.8988874	1.7399921	3.0048106
