11
0.00149787 (energy)
C	1.3362528	-0.0804124	-0.3520412
H	1.6372360	0.6480262	-1.0955911
C	2.1599370	-0.9797581	0.1870581
H	3.2026006	-1.0135266	-0.1134182
H	1.8303992	-1.6970163	0.9297076
O	0.0133284	0.0397492	-0.0395910
H	-0.2115308	-0.6308477	0.6283380
C	2.2487300	1.4987947	2.1202333
H	1.3142736	2.0800364	2.1720090
H	2.9557748	1.8056871	1.3330481
O	2.4857041	0.5733747	2.8865101
