11
0.00159984 (energy)
C	0.0159746	0.0783336	-0.0256232
H	-0.1902072	-0.9327043	0.3050906
C	-0.0746984	1.1526735	0.7589013
H	-0.3703186	1.0458095	1.7980175
H	0.1378970	2.1530178	0.4001574
O	0.3783994	0.1112594	-1.3408255
H	0.5531056	1.0344035	-1.5931617
C	3.4708346	0.7658000	0.8708177
H	3.8723666	1.7616621	0.6243180
H	3.4696817	0.5060192	1.9414569
O	3.0536411	-0.0011929	0.0120917
