11
0.00160475 (energy)
C	0.9425211	-0.2101565	1.0333660
H	0.9732922	0.3660952	1.9504631
C	0.0546103	-0.0132080	0.0583110
H	-0.6981347	0.7630936	0.1547705
H	0.0478986	-0.6058277	-0.8490696
O	1.9235811	-1.1582382	1.0041163
H	1.8581086	-1.6490457	0.1667321
C	4.4213678	-4.2507374	-0.0252191
H	3.5571180	-3.9803613	-0.6526746
H	4.6538168	-5.3264837	0.0247140
O	5.0797035	-3.4115687	0.5765524
