11
-0.00294089 (energy)
C	-1.1341117	-0.3723274	-0.7008094
H	-1.9285636	-0.7589667	-0.0735644
C	-1.2196648	-0.2571954	-2.0264533
H	-2.1255205	-0.5594703	-2.5428146
H	-0.4078103	0.1335589	-2.6287705
O	-0.0405892	-0.0201586	0.0356544
H	0.6441806	0.3199313	-0.5658605
C	1.9795748	1.0749095	-4.8523121
H	1.8353725	0.0254175	-5.1548076
H	2.0106429	1.8063481	-5.6755911
O	2.0974576	1.4063313	-3.6792810
