11
0.0016751 (energy)
C	-0.7467980	0.3138246	-1.1223981
H	-1.7808915	-0.0042319	-1.0626417
C	-0.2215254	0.9497662	-2.1700496
H	-0.8378519	1.1795515	-3.0337128
H	0.8175500	1.2561859	-2.2018607
O	-0.0544812	-0.0179844	0.0057833
H	0.8646566	0.2854249	-0.0917846
C	3.5854665	-0.1407173	1.8427081
H	3.2181090	0.8832278	1.6685923
H	4.1401235	-0.5948316	1.0061128
O	3.3903141	-0.7344824	2.8958451
