11
0.00180849 (energy)
C	-0.0188637	0.0586800	0.0569973
H	0.2246069	-0.6986930	-0.6786576
C	0.7153885	0.3080178	1.1417143
H	1.6188930	-0.2630497	1.3318072
H	0.4469323	1.0727942	1.8611801
O	-1.1670400	0.7211878	-0.2669897
H	-1.3459695	1.3884373	0.4179581
C	-2.5030631	-2.8287455	-0.1066640
H	-2.2097545	-3.8730027	0.0862825
H	-3.0552097	-2.6561598	-1.0442696
O	-2.2333685	-1.9204699	0.6692477
