11
0.00182334 (energy)
C	0.3403808	-0.5678083	1.2156090
H	1.3024611	-0.2446631	1.5951598
C	-0.4576429	-1.4312205	1.8445637
H	-0.1576812	-1.8567688	2.7971945
H	-1.4157709	-1.7365170	1.4403761
O	0.0514876	0.0188366	0.0178689
H	-0.8171457	-0.2989502	-0.2835922
C	2.8849031	-0.8476710	-2.3969464
H	2.3956769	-0.3861212	-3.2695064
H	3.5272101	-1.7154002	-2.6165905
O	2.7254077	-0.4244500	-1.2588848
