11
0.00185142 (energy)
C	0.0249103	-0.0707380	0.0377292
H	-0.2966023	0.8422655	-0.4492352
C	0.2752437	-1.2111254	-0.6062866
H	0.1605446	-1.2650953	-1.6844820
H	0.5958868	-2.1097485	-0.0922368
O	0.1402340	0.0949963	1.3873312
H	0.4297892	-0.7460764	1.7812165
C	2.5750051	2.5928954	-0.2280293
H	2.6827398	3.5693141	0.2707000
H	2.4717905	2.6285222	-1.3243110
O	2.5702958	1.5383545	0.3945944
