11
0.00185148 (energy)
C	0.6301302	0.3894738	1.1692805
H	1.2724840	1.2542808	1.0527886
C	0.4489363	-0.2549785	2.3224312
H	0.9600434	0.0790850	3.2200641
H	-0.2005363	-1.1182589	2.4091210
O	0.0334657	0.0460941	-0.0089703
H	-0.5311249	-0.7315472	0.1423650
C	3.2539669	0.1424473	-0.9058305
H	3.1150924	-0.9399571	-0.7546822
H	4.0727692	0.6012153	-0.3288983
O	2.5455052	0.7922780	-1.6644747
