11
0.00196755 (energy)
C	-1.3774397	-0.1041175	-0.0882616
H	-1.7804241	-0.9903508	0.3874212
C	-2.1209670	0.8137831	-0.7067536
H	-3.1993673	0.6990534	-0.7563886
H	-1.6897239	1.6913021	-1.1742708
O	-0.0187755	-0.0479018	0.0260381
H	0.2979813	0.7602362	-0.4132442
C	1.8611340	1.7642668	1.9493445
H	1.8122484	2.8493182	1.7649397
H	2.6453723	1.2234680	1.3959343
O	1.0949194	1.1971519	2.7181323
