11
0.00203036 (energy)
C	-0.2390177	1.2258683	0.5967313
H	0.6288557	1.8738821	0.6276195
C	-1.4355090	1.5581933	1.0824011
H	-1.5862368	2.5291597	1.5440061
H	-2.2865895	0.8886977	1.0374520
O	0.0476804	0.0324278	0.0003280
H	-0.7567226	-0.5146518	-0.0052055
C	1.9924323	-1.2082020	3.1255169
H	1.3913520	-1.8586765	3.7807395
H	2.6385416	-0.4806441	3.6421970
O	1.9455260	-1.2885108	1.9044153
