11
0.00203866 (energy)
C	-0.5150109	0.6733773	1.0942110
H	-0.6882989	1.7281626	0.9167870
C	-0.7672644	0.0604700	2.2511982
H	-1.1713452	0.6209522	3.0885465
H	-0.5836946	-0.9972550	2.3998676
O	-0.0082494	0.0557706	-0.0121108
H	0.1309235	-0.8851204	0.1922073
C	3.6586125	-0.1130351	1.5840356
H	4.1927099	-0.1684383	0.6220575
H	4.2469846	-0.3978373	2.4708624
O	2.4890216	0.2414527	1.6623584
