11
0.00219297 (energy)
C	0.0177625	-0.0342689	0.0745521
H	-0.2114956	0.4080342	-0.8876790
C	-0.5529317	0.3370809	1.2209874
H	-1.2970006	1.1275702	1.2288593
H	-0.3034957	-0.1238927	2.1696009
O	0.9603160	-1.0148113	-0.0364554
H	1.1340778	-1.3818906	0.8475416
C	1.8513376	3.4287493	-0.2560268
H	1.4065839	4.2665779	0.3043023
H	2.2484696	3.6814094	-1.2521216
O	1.9009681	2.2924759	0.1980200
