11
0.00222904 (energy)
C	1.1336058	-0.7878094	-0.1013160
H	1.3089133	-1.1758414	-1.0976988
C	1.9234721	-1.0337260	0.9444099
H	2.8049061	-1.6566188	0.8275665
H	1.7229247	-0.6315318	1.9306164
O	0.0069604	-0.0192952	-0.0538919
H	-0.1104667	0.3062288	0.8553033
C	3.6009404	2.5263656	0.4218310
H	4.2336054	3.3393447	0.8123838
H	2.8666616	2.8224162	-0.3442919
O	3.7068098	1.3707726	0.8131561
