11
0.00224 (energy)
C	-0.5499547	1.2561572	0.1886523
H	-1.0337180	1.3819066	1.1500265
C	-0.4793028	2.2093974	-0.7409970
H	-0.9223953	3.1834620	-0.5581284
H	0.0116472	2.0548119	-1.6947549
O	-0.0250326	0.0039913	0.0517931
H	0.3972861	-0.0633449	-0.8219939
C	3.5289736	-0.8479485	0.5488728
H	3.6878554	-1.9375754	0.5835307
H	4.1626424	-0.2982112	-0.1652760
O	2.7031533	-0.2853795	1.2568812
