11
0.00238099 (energy)
C	-0.2150564	0.1023414	1.3635423
H	0.6455304	0.4598391	1.9164129
C	-1.3823402	-0.2152649	1.9243288
H	-1.5148635	-0.1224280	2.9978243
H	-2.2268067	-0.5707126	1.3454369
O	0.0472304	0.0191879	0.0269481
H	-0.7495807	-0.3045261	-0.4276861
C	1.4460559	3.9466964	-0.3088316
H	1.1115269	4.4640897	-1.2221365
H	1.9293127	4.5846446	0.4482952
O	1.2910894	2.7428540	-0.1460810
