11
0.00242909 (energy)
C	-0.9460707	0.9730924	0.2720518
H	-1.1893326	1.5968791	-0.5798836
C	-1.4949053	1.1123713	1.4792338
H	-2.2342848	1.8873690	1.6560677
H	-1.2318074	0.4729221	2.3137798
O	-0.0110756	0.0316821	-0.0468899
H	0.1757775	-0.5028179	0.7441768
C	-0.1663479	-3.0387711	-2.2378296
H	-1.1843360	-2.9557868	-2.6508008
H	0.1482731	-4.0548713	-1.9509326
O	0.5665600	-2.0664921	-2.1064587
