11
0.002443 (energy)
C	-0.0670045	1.3806787	-0.0721629
H	0.3898361	1.7947401	-0.9631903
C	-0.6454949	2.1144243	0.8790852
H	-0.6794602	3.1957536	0.7888241
H	-1.0949183	1.6721666	1.7605665
O	0.0249648	0.0193697	-0.0482355
H	-0.3962098	-0.3074115	0.7655317
C	3.0268291	2.5221275	2.0450938
H	3.4178199	2.9588359	2.9779085
H	3.5315435	2.8463140	1.1210146
O	2.0935238	1.7292864	2.0359753
