11
0.00244356 (energy)
C	0.0092282	-0.0309697	0.0774829
H	-0.1098786	0.3687509	-0.9225757
C	-0.5737393	0.4836814	1.1606217
H	-1.2135459	1.3563471	1.0730094
H	-0.4361973	0.0621183	2.1495349
O	0.8278789	-1.1227214	0.0865501
H	0.9056445	-1.4466375	1.0005642
C	4.4931147	0.3460525	0.0641353
H	5.3355014	-0.2856829	0.3882131
H	4.5452908	1.4022131	0.3732606
O	3.5609915	-0.0961749	-0.5956525
