11
0.00264475 (energy)
C	0.0353319	-0.0698541	-0.0303305
H	-0.4206912	0.8317411	0.3611399
C	0.6693752	-0.9712867	0.7202126
H	0.7533024	-0.8259460	1.7927825
H	1.1164292	-1.8649153	0.3005063
O	-0.1214553	-0.1642255	-1.3826266
H	0.3014687	-0.9849574	-1.6890993
C	4.1573151	1.0220135	1.1173045
H	5.2001647	1.1719857	0.7952729
H	3.8406908	1.6130046	1.9915095
O	3.4005893	0.2499495	0.5419594
