11
0.00264865 (energy)
C	1.2884657	0.3521812	-0.3630362
H	2.0570173	-0.1301533	0.2292153
C	1.5382212	1.2085944	-1.3540383
H	2.5621629	1.4615975	-1.6111500
H	0.7482006	1.6762855	-1.9299856
O	0.0388332	-0.0269959	0.0329893
H	-0.6163102	0.4284444	-0.5235646
C	2.0634634	-0.2773586	-4.9779837
H	2.2374589	-1.0814236	-5.7107431
H	2.0968019	0.7475150	-5.3808217
O	1.8474216	-0.5074208	-3.7947102
