11
0.00280998 (energy)
C	0.5651221	1.2464883	-0.2070618
H	0.2021307	1.7491034	-1.0957099
C	1.4715455	1.7623138	0.6237373
H	1.8934746	2.7435461	0.4294876
H	1.8162480	1.2358742	1.5061341
O	-0.0209948	0.0244835	-0.0478002
H	0.3332028	-0.3885714	0.7586243
C	-2.4192297	-2.5389073	0.5291800
H	-2.1997074	-3.5370001	0.9407040
H	-3.0446700	-1.8907955	1.1636337
O	-1.9962763	-2.1742181	-0.5607058
