11
0.00299558 (energy)
C	-0.1095860	1.3546808	0.2623006
H	0.7783558	1.7870834	0.7080219
C	-1.2159525	2.0448580	-0.0161145
H	-1.2660388	3.1068406	0.2035628
H	-2.0899843	1.5851206	-0.4625366
O	0.0484786	0.0204250	0.0236165
H	-0.7693897	-0.3241597	-0.3748103
C	3.5262818	-1.4335191	1.5364612
H	4.1396650	-2.1136240	0.9241298
H	4.0811164	-0.8164494	2.2611262
O	2.3090205	-1.3678242	1.4194218
