40
-0.00270832 (energy)
C	0.4384702	-3.7990952	2.8350102
H	-0.2962406	-2.4112234	4.2100817
C	0.0434969	-2.5683593	3.1883635
H	0.8286860	-4.0277728	1.8488925
H	0.3975972	-4.6140031	3.5512706
C	0.0731293	-1.3847931	2.3459662
C	-0.0996880	-1.4095504	1.0109566
H	-0.3099860	-2.3554868	0.5209005
O	0.3496631	-0.2227352	3.0435457
C	-0.8429724	0.4124087	3.5047586
H	-0.5564572	1.3472381	3.9954903
H	-1.3613414	-0.2115899	4.2402036
H	-1.5172473	0.6555864	2.6771478
S	0.0000000	0.0000000	0.0000000
C	-0.0916045	-0.7897161	-1.5951826
C	-1.3172999	-0.8894019	-2.2607727
C	-1.3895252	-1.5060047	-3.5116514
H	-2.2220876	-0.4875034	-1.8114344
C	-0.2366887	-2.0206321	-4.1036025
H	-2.3446195	-1.5811971	-4.0251190
C	1.0628615	-1.3006531	-2.1972842
C	0.9894863	-1.9170458	-3.4480127
H	-0.2929816	-2.4981412	-5.0786437
H	1.8897444	-2.3123119	-3.9114815
H	2.0253281	-1.2202529	-1.6973786
C	6.8675178	0.3855200	-2.2680333
C	5.7352128	0.1064564	-1.6100922
H	7.2047522	-0.2426915	-3.0854141
H	7.4805117	1.2441461	-2.0059962
H	5.1240301	-0.7488595	-1.8704618
C	5.2753018	0.9624466	-0.4956917
O	5.8526520	1.9552828	-0.0862358
O	4.1157485	0.4410737	-0.0236488
C	3.5179315	1.1543694	1.0683640
C	4.0919152	0.6706449	2.3868846
H	2.4434303	0.9461298	1.0364365
H	3.6391894	2.2375413	0.9516382
H	3.9617843	-0.4117566	2.4888555
H	3.6004803	1.1662247	3.2288681
H	5.1668944	0.8689173	2.4437625
