40
-0.00250232 (energy)
C	0.0129935	-2.6882588	-0.1449428
H	-0.0919732	-2.0646266	1.8442466
C	0.0213964	-1.7477347	0.8094770
H	0.1612494	-2.4579260	-1.1946842
H	-0.1237841	-3.7329772	0.1170305
C	0.2243165	-0.3233686	0.6061427
C	-0.1658217	0.3398771	-0.4986771
H	-0.6964875	-0.1965640	-1.2795744
O	0.9092109	0.2857511	1.6421733
C	0.0197567	0.7852544	2.6411087
H	0.6200201	1.3001667	3.3969947
H	-0.5170941	-0.0322131	3.1335497
H	-0.6926198	1.5047799	2.2245458
S	0.1357692	2.0301366	-0.7648898
C	-0.4223632	2.1539686	-2.4530262
C	-1.7228307	2.5844992	-2.7335687
C	-2.1601649	2.6839428	-4.0560521
H	-2.4024271	2.8459574	-1.9261923
C	-1.2981226	2.3581974	-5.1024997
H	-3.1720152	3.0190006	-4.2691327
C	0.4405362	1.8361369	-3.5069533
C	0.0021896	1.9358627	-4.8289036
H	-1.6381862	2.4383866	-6.1319731
H	0.6769147	1.6877437	-5.6441866
H	1.4585416	1.5110936	-3.3051522
C	3.6787747	-0.1574027	0.1261608
C	4.4664914	-0.3477836	-0.9397357
H	3.9756721	-0.5121137	1.1072418
H	2.7236093	0.3548570	0.0430179
H	5.4181708	-0.8581614	-0.8577436
C	4.0620182	0.1354092	-2.2772902
O	3.0240985	0.7237345	-2.5288994
O	5.0431125	-0.1972938	-3.1524935
C	4.8187850	0.2025715	-4.5120716
C	4.0185615	-0.8579382	-5.2448095
H	5.8026923	0.3099934	-4.9803908
H	4.3290496	1.1818593	-4.5644566
H	4.5211428	-1.8288682	-5.1845405
H	3.8926656	-0.5902786	-6.2976876
H	3.0284156	-0.9834297	-4.7953761
