40
-0.000909403 (energy)
C	-2.7816365	-1.5144066	3.5541150
H	-0.9297738	-1.5361453	4.5168931
C	-1.4494158	-1.3718532	3.5750854
H	-3.3672187	-1.4082555	2.6470233
H	-3.3195643	-1.7677235	4.4625416
C	-0.6029262	-1.0666778	2.4341807
C	-0.9932630	-0.3095072	1.3915593
H	-1.9827805	0.1376208	1.4019232
O	0.6378226	-1.6752755	2.4943296
C	1.6015280	-0.8458600	3.1438265
H	2.5660422	-1.3607942	3.1068158
H	1.3405676	-0.6898897	4.1957452
H	1.7113413	0.1186371	2.6374590
S	0.0000000	0.0000000	0.0000000
C	-1.1985728	0.8333259	-1.0225662
C	-1.2529454	2.2303937	-1.0454089
C	-2.1902571	2.8840961	-1.8480500
H	-0.5666327	2.8180430	-0.4406682
C	-3.0729355	2.1442070	-2.6340032
H	-2.2287501	3.9702918	-1.8623813
C	-2.0811702	0.0964110	-1.8190291
C	-3.0180168	0.7510623	-2.6211485
H	-3.8006403	2.6536257	-3.2607626
H	-3.7014975	0.1735536	-3.2382717
H	-2.0433213	-0.9904540	-1.8209624
C	4.1345821	-0.1639082	0.0383622
C	3.5559065	1.0288054	0.2266351
H	3.5931904	-0.9759330	-0.4349229
H	5.1578157	-0.3551876	0.3515218
H	2.5364863	1.2201124	-0.0849509
C	4.2935133	2.1358892	0.8719470
O	5.4421265	2.0747721	1.2765006
O	3.4647842	3.2078173	0.9302259
C	4.0223474	4.3870182	1.5279517
C	3.8309447	4.3522415	3.0326439
H	3.4842142	5.2433505	1.1083761
H	5.0785002	4.5086579	1.2608662
H	2.7717655	4.2319079	3.2828129
H	4.1997277	5.2737334	3.4918776
H	4.3614105	3.5039697	3.4766805
