40
-0.000819443 (energy)
C	1.2083232	4.4737775	1.0899235
H	0.3396985	4.7853049	-0.7823082
C	0.6409310	4.0436595	-0.0452584
H	1.5728827	3.7964618	1.8549921
H	1.3408074	5.5366790	1.2673013
C	0.4306165	2.6570907	-0.4254359
C	0.1874698	1.6667001	0.4536179
H	0.1047101	1.9037966	1.5100799
O	0.5557070	2.4369587	-1.7853480
C	-0.6952268	2.5751031	-2.4595773
H	-0.5355457	2.3342365	-3.5147075
H	-1.0628803	3.6047068	-2.3986916
H	-1.4464333	1.8843422	-2.0630169
S	0.0000000	0.0000000	0.0000000
C	-0.0546733	-0.7303161	1.6248999
C	-1.2844859	-1.0032708	2.2318046
C	-1.3281748	-1.5775431	3.5039741
H	-2.2148729	-0.7722476	1.7188948
C	-0.1434286	-1.8853288	4.1717494
H	-2.2865803	-1.7877743	3.9717026
C	1.1304984	-1.0484607	2.2961130
C	1.0856513	-1.6225787	3.5681282
H	-0.1779819	-2.3348973	5.1609831
H	2.0096916	-1.8679514	4.0852791
H	2.0945457	-0.8530018	1.8323023
C	6.2278488	2.8561051	-0.1664924
C	5.3403615	1.8709281	0.0197073
H	6.3411597	3.6480014	0.5660026
H	6.8584544	2.8935882	-1.0511366
H	4.7116493	1.8329586	0.9007187
C	5.1854683	0.7914010	-0.9786690
O	5.8173946	0.6972107	-2.0171816
O	4.2240924	-0.0534237	-0.5300649
C	3.9426819	-1.1748390	-1.3797140
C	2.9064046	-0.7960289	-2.4211435
H	3.5470146	-1.9700053	-0.7393283
H	4.8563615	-1.5618232	-1.8455707
H	2.0002477	-0.4131199	-1.9403258
H	2.6412642	-1.6602676	-3.0366400
H	3.2793479	-0.0020308	-3.0758247
