40
-0.000316523 (energy)
C	-3.5355728	-1.2559329	-2.9300205
H	-1.9828616	-2.3938637	-3.7368731
C	-2.2554906	-1.6469060	-2.9940751
H	-3.8790019	-0.4871415	-2.2459108
H	-4.2756482	-1.6938186	-3.5928321
C	-1.1602296	-1.1265307	-2.1934797
C	-1.2997701	-0.6803558	-0.9308689
H	-2.2731113	-0.7373403	-0.4528149
O	0.0433699	-1.0834717	-2.8738917
C	0.7898967	-2.2883860	-2.7024746
H	1.7476599	-2.1651469	-3.2165916
H	0.2701813	-3.1401972	-3.1533333
H	0.9945580	-2.4900834	-1.6459929
S	0.0000000	0.0000000	0.0000000
C	-0.9290549	0.5616889	1.4135109
C	-1.0165886	-0.2354656	2.5590060
C	-1.7424482	0.2048969	3.6677537
H	-0.5203510	-1.2021226	2.5962980
C	-2.3790865	1.4450768	3.6373383
H	-1.8077008	-0.4183617	4.5558972
C	-1.5630775	1.8082477	1.3915675
C	-2.2886448	2.2475424	2.5007194
H	-2.9417795	1.7886394	4.5017632
H	-2.7793449	3.2171914	2.4784127
H	-1.4943688	2.4446655	0.5123843
C	3.7249564	0.3957906	-0.1711475
C	4.5716675	-0.6409681	-0.2041512
H	2.7771425	0.3230309	0.3511962
H	3.9585592	1.3365445	-0.6631593
H	4.3395988	-1.5785880	0.2856599
C	5.8636731	-0.5422334	-0.9162601
O	6.2644901	0.4420878	-1.5138959
O	6.5020096	-1.7314428	-0.7838759
C	7.7877842	-1.8151884	-1.4150953
C	7.6333307	-2.2352535	-2.8647962
H	8.3621121	-2.5727515	-0.8717892
H	8.3375733	-0.8708974	-1.3277107
H	7.0840007	-3.1798378	-2.9349548
H	8.6110347	-2.3593447	-3.3388639
H	7.0625046	-1.4921121	-3.4305044
