40
0.000135347 (energy)
C	0.8551054	-3.7686325	2.7800840
H	0.1670620	-2.4168303	4.2139727
C	0.4298458	-2.5584403	3.1675920
H	1.1745732	-3.9791470	1.7648924
H	0.9130186	-4.5835266	3.4951841
C	0.3322474	-1.3760789	2.3286425
C	0.0527565	-1.4112913	1.0120657
H	-0.1497130	-2.3671844	0.5383038
O	0.6068609	-0.2007510	3.0044075
C	-0.5742070	0.3752616	3.5627912
H	-0.2952626	1.3238341	4.0309951
H	-0.9994958	-0.2725595	4.3363656
H	-1.3248153	0.5835747	2.7934313
S	0.0000000	0.0000000	0.0000000
C	-0.1820078	-0.7955908	-1.5844744
C	-1.4513880	-0.9567745	-2.1483630
C	-1.5946338	-1.5780066	-3.3908058
H	-2.3353517	-0.5994936	-1.6258435
C	-0.4697857	-2.0358095	-4.0759429
H	-2.5834698	-1.7011154	-3.8250357
C	0.9434536	-1.2496418	-2.2798513
C	0.7990650	-1.8707208	-3.5220503
H	-0.5815924	-2.5169307	-5.0444008
H	1.6770414	-2.2216221	-4.0582676
H	1.9382668	-1.1209865	-1.8597248
C	5.9848365	3.8600932	-1.9726447
C	4.8237294	3.3742766	-1.5158183
H	6.8779041	3.8361654	-1.3575466
H	6.0689910	4.2908754	-2.9671337
H	4.7390473	2.9450691	-0.5251056
C	3.6060867	3.4069122	-2.3539156
O	3.5421916	3.8572699	-3.4852009
O	2.5948861	2.8557831	-1.6377117
C	1.3257537	2.7993700	-2.3046361
C	0.5640858	4.0941690	-2.0917960
H	0.7682873	1.9675714	-1.8616031
H	1.4448502	2.5749377	-3.3709549
H	0.4523543	4.3032492	-1.0228120
H	-0.4290241	4.0391258	-2.5464902
H	1.1014451	4.9423130	-2.5277134
