40
0.000215987 (energy)
C	1.2817744	-3.9408638	2.3429276
H	0.4432217	-2.8499730	3.9125124
C	0.7205065	-2.8395844	2.8603591
H	1.6232732	-3.9955951	1.3146411
H	1.4327858	-4.8205594	2.9610747
C	0.4879196	-1.5875598	2.1605892
C	0.2143023	-1.5029323	0.8450280
H	0.1228139	-2.4148853	0.2626643
O	0.6259066	-0.4740448	2.9696074
C	-0.6134342	-0.1043403	3.5744689
H	-0.4451360	0.8097413	4.1514830
H	-0.9615996	-0.8809411	4.2634043
H	-1.3829891	0.1040665	2.8240865
S	0.0000000	0.0000000	0.0000000
C	-0.0895585	-0.6238533	-1.6671643
C	-1.3320752	-0.8627895	-2.2624275
C	-1.4031251	-1.3494507	-3.5694185
H	-2.2511829	-0.6709605	-1.7142388
C	-0.2331936	-1.5943501	-4.2874465
H	-2.3713159	-1.5337385	-4.0278425
C	1.0805518	-0.8638042	-2.3949282
C	1.0083491	-1.3504725	-3.7016747
H	-0.2890816	-1.9706341	-5.3058649
H	1.9207772	-1.5351148	-4.2628213
H	2.0540441	-0.6717418	-1.9498028
C	4.4755688	-1.7385819	5.5577554
C	4.1213131	-1.8622472	4.2724198
H	4.0549261	-2.3907510	6.3155305
H	5.1906848	-0.9862104	5.8805709
H	3.4088261	-2.6114692	3.9500375
C	4.6943360	-0.9732901	3.2392084
O	5.5036126	-0.0848499	3.4452582
O	4.1562437	-1.3247995	2.0450074
C	4.6076500	-0.5623536	0.9164791
C	3.7610045	0.6863187	0.7553829
H	4.4943250	-1.2000571	0.0336271
H	5.6725463	-0.3165286	1.0010701
H	2.7012887	0.4240562	0.6708489
H	4.0588772	1.2443907	-0.1367333
H	3.8582894	1.3420475	1.6264068
