40
0.000301467 (energy)
C	0.0519587	-1.8415383	3.5374721
H	-0.4416830	-0.0207483	2.6442468
C	-0.1366093	-1.0509528	2.4721130
H	0.3954057	-2.8670422	3.4515884
H	-0.1172185	-1.4595341	4.5395831
C	0.0806726	-1.4192791	1.0834213
C	-0.0999935	-2.6627918	0.5999284
H	-0.4631300	-3.4421074	1.2632344
O	0.5451620	-0.3738933	0.3056780
C	-0.5265803	0.3561486	-0.2917428
H	-0.0900336	1.1273889	-0.9331710
H	-1.1358876	0.8535923	0.4700014
H	-1.1562923	-0.2876262	-0.9144293
S	0.2222847	-3.1126731	-1.0470527
C	-0.0034693	-4.8751219	-0.9075530
C	-1.2321486	-5.4547453	-1.2387032
C	-1.4091318	-6.8358196	-1.1318225
H	-2.0577284	-4.8364604	-1.5825197
C	-0.3577204	-7.6426356	-0.6983926
H	-2.3661246	-7.2817659	-1.3902889
C	1.0501020	-5.6902021	-0.4809307
C	0.8720188	-7.0709899	-0.3743616
H	-0.4951641	-8.7180556	-0.6179564
H	1.6941396	-7.6998243	-0.0424159
H	2.0151516	-5.2555247	-0.2310375
C	3.4122945	0.0144702	0.1180230
C	3.8957058	1.2601017	0.0308838
H	2.3924152	-0.2079020	-0.1767393
H	4.0218952	-0.8076626	0.4842858
H	3.2889653	2.0797291	-0.3337788
C	5.2858321	1.5636530	0.4327937
O	6.0876062	0.7515557	0.8621740
O	5.4927808	2.8900840	0.2405154
C	6.8042153	3.3650949	0.5769255
C	6.8689970	3.7259945	2.0491680
H	6.9860041	4.2586752	-0.0292123
H	7.5747625	2.6327930	0.3093800
H	6.0948312	4.4586219	2.2998664
H	7.8468658	4.1446977	2.3031446
H	6.6913041	2.8473388	2.6772737
