40
0.000305567 (energy)
C	1.0843957	-3.4471952	3.0989666
H	0.5532182	-1.9276333	4.4277222
C	0.7111840	-2.1922204	3.3841410
H	1.3011229	-3.7778991	2.0886922
H	1.2036237	-4.1770098	3.8939068
C	0.5440719	-1.1105504	2.4284194
C	0.1370792	-1.2885489	1.1574344
H	-0.1202691	-2.2874030	0.8179669
O	0.8951391	0.1276059	2.9355559
C	-0.2199375	0.7879180	3.5348025
H	0.1129006	1.7772551	3.8622863
H	-0.5741922	0.2408941	4.4147050
H	-1.0399167	0.9236845	2.8221151
S	0.0000000	0.0000000	0.0000000
C	-0.3437766	-0.9656898	-1.4580505
C	-1.6636884	-1.1627583	-1.8755112
C	-1.9337539	-1.9173775	-3.0190702
H	-2.4887952	-0.7300614	-1.3151182
C	-0.8858076	-2.4734149	-3.7518120
H	-2.9614376	-2.0678870	-3.3395716
C	0.7038185	-1.5191715	-2.2014060
C	0.4326410	-2.2735868	-3.3446321
H	-1.0964355	-3.0585259	-4.6435350
H	1.2505167	-2.7013694	-3.9187267
H	1.7361299	-1.3648740	-1.8960584
C	7.5335394	4.2630031	-0.8277124
C	7.1726641	2.9741822	-0.7878708
H	8.5781283	4.5497603	-0.7721034
H	6.7966982	5.0572789	-0.9163387
H	7.9061491	2.1822967	-0.6994462
C	5.7488224	2.5829139	-0.8634345
O	4.8109229	3.3556280	-0.9632767
O	5.6866252	1.2297549	-0.7977804
C	4.3676078	0.6688343	-0.8628089
C	3.7544815	0.6098118	0.5237464
H	4.4705984	-0.3451761	-1.2629485
H	3.7307293	1.2262852	-1.5593890
H	4.4012105	0.0490811	1.2065700
H	2.7723914	0.1295826	0.4933714
H	3.6398490	1.6132807	0.9456907
