40
-0.00190638 (energy)
C	1.3942827	-3.3075261	3.1271248
H	1.5351358	-1.6034348	4.3242224
C	1.3294350	-1.9839275	3.3257567
H	1.2432269	-3.7611136	2.1532508
H	1.6271588	-3.9741975	3.9518020
C	1.0598116	-0.9782419	2.3122282
C	0.2685261	-1.1843398	1.2425926
H	-0.2350283	-2.1400177	1.1317389
O	1.7399774	0.2077230	2.5227714
C	0.9758516	1.1218137	3.3095716
H	1.5453164	2.0524878	3.3893847
H	0.8179738	0.7331017	4.3209753
H	0.0131824	1.3513128	2.8412556
S	0.0000000	0.0000000	0.0000000
C	-0.9138948	-1.0043613	-1.1544285
C	-2.3119408	-0.9771690	-1.1564940
C	-3.0286830	-1.7620969	-2.0621880
H	-2.8513495	-0.3451704	-0.4552920
C	-2.3509097	-2.5729510	-2.9718136
H	-4.1153780	-1.7376675	-2.0598990
C	-0.2392150	-1.8135787	-2.0744010
C	-0.9568711	-2.5980624	-2.9794980
H	-2.9093119	-3.1817653	-3.6785110
H	-0.4275734	-3.2250543	-3.6923994
H	0.8479107	-1.8365314	-2.0929083
C	4.6182531	5.8724529	-0.0243110
C	4.5892535	4.6978789	-0.6665046
H	5.1501535	6.7208982	-0.4410968
H	4.1134853	6.0122724	0.9282244
H	5.0920044	4.5577475	-1.6154548
C	3.8644781	3.5410372	-0.0985751
O	3.2539630	3.5421463	0.9568781
O	4.0089008	2.4999074	-0.9555516
C	3.3590581	1.2825603	-0.5625655
C	4.2708958	0.4684817	0.3361955
H	3.1495493	0.7214776	-1.4792051
H	2.3951160	1.4823632	-0.0803994
H	5.2279611	0.2763091	-0.1598096
H	3.8081711	-0.4884421	0.5935404
H	4.4946060	1.0085180	1.2616369
