40
0.000456387 (energy)
C	1.0687653	-3.3224989	3.2374997
H	0.1716661	-1.8980078	4.4715368
C	0.5048378	-2.1277624	3.4614721
H	1.4633518	-3.6109013	2.2689360
H	1.1673772	-4.0414533	4.0450608
C	0.3372563	-1.0637481	2.4862131
C	0.1361097	-1.2755130	1.1718976
H	0.0559561	-2.2944369	0.8050933
O	0.4561354	0.2022291	3.0308562
C	-0.8053497	0.7102478	3.4656855
H	-0.6481822	1.7293304	3.8311766
H	-1.2066135	0.1122966	4.2905501
H	-1.5290578	0.7511189	2.6451382
S	0.0000000	0.0000000	0.0000000
C	-0.0140838	-0.9829605	-1.4866879
C	-1.2279937	-1.3385360	-2.0827292
C	-1.2398203	-2.1067777	-3.2488242
H	-2.1706326	-1.0195370	-1.6448483
C	-0.0388723	-2.5180982	-3.8257286
H	-2.1859678	-2.3807804	-3.7084279
C	1.1876701	-1.3916579	-2.0741647
C	1.1746793	-2.1598408	-3.2400857
H	-0.0485483	-3.1138629	-4.7350470
H	2.1114974	-2.4746998	-3.6925665
H	2.1399890	-1.1131299	-1.6289427
C	1.7286950	3.3489435	0.2943386
C	2.5754061	2.3121848	0.2613349
H	0.7808811	3.2761838	0.8166823
H	1.9622978	4.2896973	-0.1976732
H	2.3433374	1.3745649	0.7511460
C	3.8674116	2.4109195	-0.4507740
O	4.2682286	3.3952407	-1.0484098
O	4.5057481	1.2217101	-0.3183898
C	5.7915228	1.1379645	-0.9496092
C	5.6370693	0.7178994	-2.3993101
H	6.3658506	0.3804014	-0.4063031
H	6.3413118	2.0822555	-0.8622246
H	5.0877392	-0.2266849	-2.4694687
H	6.6147732	0.5938082	-2.8733778
H	5.0662432	1.4610408	-2.9650183
