40
0.000522677 (energy)
C	-2.3339309	4.1093108	-0.5735805
H	-0.3907209	4.7405526	-1.0005212
C	-1.0128248	3.9093202	-0.6748516
H	-3.0158407	3.3444922	-0.2171515
H	-2.7631951	5.0727357	-0.8311058
C	-0.3034237	2.6872834	-0.3361533
C	-0.8284986	1.4543463	-0.4661226
H	-1.8263765	1.3438345	-0.8798889
O	0.9572510	2.9127081	0.1866749
C	1.9548054	2.9404948	-0.8344115
H	2.9273833	3.0654566	-0.3493431
H	1.8016681	3.7881198	-1.5104594
H	1.9764032	2.0055582	-1.4037523
S	0.0000000	0.0000000	0.0000000
C	-1.3287853	-1.1663148	-0.2251447
C	-1.4341740	-1.8903141	-1.4167800
C	-2.4737009	-2.8059649	-1.5930757
H	-0.7085568	-1.7475361	-2.2137507
C	-3.4083552	-3.0046693	-0.5775869
H	-2.5515179	-3.3663460	-2.5212059
C	-2.2645786	-1.3755169	0.7931383
C	-3.3036212	-2.2912554	0.6157717
H	-4.2158670	-3.7196066	-0.7142560
H	-4.0280936	-2.4500751	1.4103907
H	-2.1891046	-0.8286169	1.7301099
C	7.1266239	-1.7494993	0.4142021
C	6.2179800	-1.9468938	-0.5492705
H	8.1861118	-1.7270881	0.1829640
H	6.8337842	-1.6065157	1.4512480
H	6.5089388	-2.0895618	-1.5826584
C	4.7736670	-1.9777189	-0.2344122
O	4.2923447	-1.8348365	0.8767244
O	4.1014625	-2.1946617	-1.3921233
C	2.6725282	-2.2500087	-1.2748586
C	2.2291192	-3.6603038	-0.9336851
H	2.2603341	-1.9598169	-2.2468775
H	2.3039990	-1.5250358	-0.5398822
H	2.6035940	-4.3715441	-1.6772113
H	1.1379920	-3.7263207	-0.9001128
H	2.6281467	-3.9738204	0.0361663
