40
0.000529607 (energy)
C	-3.1514350	2.6545967	-2.3841638
H	-1.3861469	3.6327220	-2.9169286
C	-1.8267787	2.8432184	-2.3114956
H	-3.6712281	1.9166108	-1.7823481
H	-3.7559473	3.2657027	-3.0474050
C	-0.9054008	2.1228485	-1.4492485
C	-1.0701597	0.8379609	-1.0823045
H	-1.9161719	0.2795561	-1.4716931
O	0.1417569	2.9031925	-0.9931887
C	1.2675827	2.8397526	-1.8689718
H	2.0730156	3.4303761	-1.4225905
H	1.0303978	3.2735399	-2.8459733
H	1.6267621	1.8127781	-1.9915908
S	0.0000000	0.0000000	0.0000000
C	-0.9284191	-1.5077018	0.2037739
C	-0.6307148	-2.6276765	-0.5787256
C	-1.3561868	-3.8100487	-0.4181048
H	0.1670973	-2.5876921	-1.3162656
C	-2.3781019	-3.8786979	0.5280750
H	-1.1211448	-4.6779954	-1.0287864
C	-1.9492746	-1.5847835	1.1568150
C	-2.6740706	-2.7674951	1.3165320
H	-2.9407827	-4.8002527	0.6546298
H	-3.4663240	-2.8220239	2.0587344
H	-2.1847419	-0.7259214	1.7810128
C	6.0691730	-0.0861244	4.8260129
C	5.4214111	0.5714922	3.8560528
H	6.6775533	0.4470368	5.5485782
H	6.0066043	-1.1673189	4.9196463
H	5.4833571	1.6486283	3.7620193
C	4.5921762	-0.1549612	2.8707807
O	4.4258119	-1.3625913	2.8450170
O	4.0666859	0.7585951	2.0172628
C	3.2215727	0.2261195	0.9872526
C	4.0540458	-0.1867556	-0.2121080
H	2.5292210	1.0234085	0.6975713
H	2.6146615	-0.6071335	1.3599964
H	4.6527319	0.6559903	-0.5730508
H	3.4138372	-0.5391688	-1.0257305
H	4.7547131	-0.9851392	0.0520439
