40
0.000681727 (energy)
C	0.1270704	-0.0433239	-0.6083772
H	-0.9679475	0.5243544	1.0755132
C	-0.0790681	0.0109141	0.7145508
H	0.9664744	-0.5711643	-1.0485766
H	-0.5700815	0.4327083	-1.2911268
C	0.7509150	-0.6042495	1.7363345
C	2.0823015	-0.7691414	1.6225352
H	2.5892984	-0.3951527	0.7380792
O	0.0311787	-1.0566334	2.8275700
C	-0.0777942	-0.0555131	3.8396903
H	-0.6061905	-0.4954574	4.6906080
H	-0.6606802	0.8006465	3.4844516
H	0.9059491	0.2779275	4.1857948
S	3.0608687	-1.5625500	2.8190770
C	4.6036031	-1.6210051	1.9284569
C	5.5718642	-0.6333869	2.1342662
C	6.7817809	-0.6797189	1.4385164
H	5.3916299	0.1763742	2.8370255
C	7.0300741	-1.7154745	0.5386051
H	7.5313462	0.0903459	1.6017956
C	4.8613155	-2.6619486	1.0304616
C	6.0714015	-2.7072594	0.3352752
H	7.9732553	-1.7525958	-0.0007652
H	6.2666104	-3.5185065	-0.3613416
H	4.1229442	-3.4437834	0.8684306
C	10.2872165	-4.9467467	-2.3626925
C	9.7459980	-4.0448593	-3.1912812
H	10.8434054	-5.7937601	-2.7496165
H	10.1872211	-4.8596379	-1.2837686
H	9.8450616	-4.1310209	-4.2662995
C	8.9875823	-2.8902403	-2.6642267
O	8.7894482	-2.6579665	-1.4837594
O	8.5602780	-2.1570733	-3.7220997
C	7.8034906	-0.9831220	-3.3938029
C	6.3350257	-1.3324024	-3.2403194
H	7.9294450	-0.2791131	-4.2229247
H	8.1954139	-0.4941761	-2.4944044
H	5.9586057	-1.8181824	-4.1465485
H	5.7408779	-0.4345588	-3.0482022
H	6.1825373	-2.0354498	-2.4153352
