40
0.000766597 (energy)
C	-0.6668089	-0.1624415	-2.6032463
H	-1.2695794	-1.8826629	-1.5862332
C	-0.7294706	-0.9407881	-1.5142912
H	-0.1136260	0.7705790	-2.6244940
H	-1.1620024	-0.4641347	-3.5211457
C	-0.0918890	-0.6770398	-0.2355157
C	0.1124507	0.5578767	0.2604237
H	-0.2448245	1.4188540	-0.2965758
O	0.3370959	-1.8231330	0.4093943
C	-0.6686098	-2.3490515	1.2756912
H	-0.2459800	-3.2158116	1.7923395
H	-1.5409741	-2.6859595	0.7061006
H	-0.9734712	-1.6179808	2.0315464
S	0.9322754	0.8706672	1.7600413
C	1.0378518	2.6469723	1.6588278
C	0.0788924	3.4451903	2.2901134
C	0.1621751	4.8370439	2.2131709
H	-0.7370904	2.9898180	2.8458798
C	1.2064149	5.4358119	1.5093815
H	-0.5857086	5.4533414	2.7054671
C	2.0875521	3.2531421	0.9609294
C	2.1698181	4.6449209	0.8845781
H	1.2723351	6.5194439	1.4520648
H	2.9877174	5.1108496	0.3410210
H	2.8475291	2.6459524	0.4746500
C	8.7700349	-1.4455555	-0.6299069
C	8.1710682	-1.5016246	0.5663259
H	9.8515971	-1.4564825	-0.7110972
H	8.1958464	-1.3876592	-1.5511122
H	8.7424187	-1.5591792	1.4845567
C	6.6967689	-1.4865373	0.6774107
O	5.9208560	-1.4236999	-0.2610571
O	6.3795254	-1.5504660	1.9944103
C	4.9758390	-1.5513057	2.2916165
C	4.4614980	-0.1277201	2.3955429
H	4.8530492	-2.0580091	3.2544821
H	4.4112277	-2.1284478	1.5501916
H	5.0341540	0.4345724	3.1404037
H	3.4055596	-0.1166932	2.6800007
H	4.5723879	0.4005949	1.4433276
