40
0.000847377 (energy)
C	2.0877748	-0.6127445	-4.2341945
H	0.9874535	-2.3827857	-4.1199287
C	1.2794569	-1.4727654	-3.5997188
H	2.4565210	0.2954013	-3.7691273
H	2.4200602	-0.8191244	-5.2469967
C	0.7851661	-1.3390114	-2.2398928
C	0.5300458	-0.1573622	-1.6471466
H	0.6613601	0.7595324	-2.2139242
O	0.6481439	-2.5498694	-1.5852827
C	-0.6564313	-3.1017893	-1.7640911
H	-0.7133188	-4.0238942	-1.1781722
H	-0.8351985	-3.3556766	-2.8141118
H	-1.4356001	-2.4218344	-1.4045369
S	0.0000000	0.0000000	0.0000000
C	0.0929706	1.7728394	0.1582644
C	-1.0488022	2.5565987	-0.0350047
C	-0.9772823	3.9455239	0.0910290
H	-1.9999145	2.0920577	-0.2833091
C	0.2340203	4.5553624	0.4152550
H	-1.8675271	4.5505736	-0.0602557
C	1.3035502	2.3893518	0.4911069
C	1.3739436	3.7781968	0.6168038
H	0.2885738	5.6364623	0.5159328
H	2.3172221	4.2521920	0.8757584
H	2.1975012	1.7923918	0.6560379
C	3.9248408	-0.1191571	-0.2089056
C	4.9855787	0.4899300	-0.7536308
H	3.9855188	-0.5637079	0.7786069
H	2.9760174	-0.1871686	-0.7349972
H	5.9312460	0.5579796	-0.2301955
C	4.9033099	1.0958481	-2.0998184
O	3.9126374	1.0995240	-2.8106388
O	6.1153715	1.6315551	-2.3881633
C	6.2178741	2.2730702	-3.6674675
C	6.5848975	1.2586355	-4.7343130
H	7.0103174	3.0242933	-3.5860209
H	5.2943966	2.8060622	-3.9218263
H	7.5092508	0.7363648	-4.4664889
H	6.7233850	1.7473133	-5.7028474
H	5.8062300	0.4960785	-4.8358562
