40
0.000902857 (energy)
C	0.0691750	-2.0119396	-3.4431070
H	-0.4297873	-2.2280064	-1.4278747
C	-0.1247464	-1.5323510	-2.2069992
H	0.4129726	-1.3916424	-4.2640971
H	-0.0957753	-3.0640552	-3.6543381
C	0.0865619	-0.1602361	-1.7780592
C	-0.0953766	0.9108944	-2.5732368
H	-0.4549679	0.7636321	-3.5872307
O	0.5467991	-0.0575690	-0.4776332
C	-0.5281421	0.0552959	0.4552481
H	-0.0950374	0.1885992	1.4509715
H	-1.1343808	-0.8564387	0.4684599
H	-1.1601798	0.9231016	0.2403913
S	0.2198257	2.5453892	-2.0753637
C	-0.0040277	3.3657111	-3.6417647
C	-1.2337633	3.9505898	-3.9594811
C	-1.4092682	4.5954615	-5.1856341
H	-2.0613250	3.9092471	-3.2555630
C	-0.3553387	4.6622056	-6.0961601
H	-2.3670901	5.0485325	-5.4281459
C	1.0520370	3.4426268	-4.5556500
C	0.8754306	4.0876057	-5.7813979
H	-0.4916438	5.1667189	-7.0494577
H	1.6994875	4.1446031	-6.4879280
H	2.0178853	3.0028427	-4.3180816
C	5.7090633	-0.6020365	-4.5699501
C	4.7981552	-0.9355765	-3.6469793
H	5.7832948	-1.1520113	-5.5018865
H	6.3982455	0.2243894	-4.4159634
H	4.1112846	-1.7588753	-3.7995888
C	4.6968064	-0.1862495	-2.3764033
O	5.3974295	0.7600367	-2.0595738
O	3.6998550	-0.7432580	-1.6449337
C	3.4553323	-0.1330688	-0.3695728
C	4.3599540	-0.7427007	0.6849185
H	2.4088194	-0.3311525	-0.1155853
H	3.5738294	0.9555707	-0.4186844
H	4.2288338	-1.8291260	0.7225068
H	4.1404094	-0.3261991	1.6720205
H	5.4135971	-0.5569033	0.4537413
