40
0.00105941 (energy)
C	0.5522599	3.8530914	-0.8696940
H	-0.4957746	2.1631569	-1.5041660
C	0.1437750	2.5844218	-0.7311631
H	1.2234976	4.3319389	-0.1646160
H	0.2314523	4.4414297	-1.7239276
C	0.5179826	1.6765592	0.3398619
C	0.7824796	2.0710075	1.5996957
H	0.6812253	3.1206032	1.8590648
O	0.6288224	0.3604621	-0.0713187
C	-0.6058216	-0.3424517	0.0703528
H	-0.4334861	-1.3837286	-0.2174967
H	-1.3717610	0.0707229	-0.5941647
H	-0.9612032	-0.3302746	1.1058611
S	1.2914569	0.9900795	2.8611791
C	1.6676837	2.1888569	4.1253139
C	0.7174368	2.5019768	5.1021778
C	1.0122571	3.4394632	6.0943033
H	-0.2562872	2.0183312	5.0980997
C	2.2590142	4.0634721	6.1164241
H	0.2702925	3.6796469	6.8514746
C	2.9194794	2.8120522	4.1570916
C	3.2131785	3.7493283	5.1495128
H	2.4890263	4.7912258	6.8906063
H	4.1875895	4.2305983	5.1696552
H	3.6731018	2.5703672	3.4112005
C	7.6585338	-1.5237120	-3.8708499
C	7.0871582	-1.5300808	-2.6599135
H	8.7328995	-1.6261939	-3.9791264
H	7.0683990	-1.4163709	-4.7774272
H	7.6744206	-1.6368376	-1.7562390
C	5.6226952	-1.3901943	-2.5119073
O	4.8316116	-1.2608119	-3.4306881
O	5.3343022	-1.4284036	-1.1872989
C	3.9434932	-1.3105707	-0.8549839
C	3.5544450	0.1513787	-0.7397076
H	3.8023791	-1.8060669	0.1111974
H	3.3135763	-1.8369852	-1.5814012
H	4.1912025	0.6623116	-0.0100414
H	2.5107087	0.2515717	-0.4288704
H	3.6858048	0.6694062	-1.6949665
