40
0.00131509 (energy)
C	0.5249653	5.2652784	-3.2746409
H	-0.3421680	4.9668201	-5.1496908
C	0.0449294	4.4861862	-4.2534944
H	0.9652784	4.8621564	-2.3687672
H	0.5049529	6.3461089	-3.3755346
C	0.0367966	3.0332104	-4.2651237
C	-0.0832642	2.2747188	-3.1592280
H	-0.2185907	2.7584796	-2.1965037
O	0.2175438	2.4945015	-5.5263096
C	-1.0271756	2.2811459	-6.1923856
H	-0.8151908	1.8048331	-7.1541564
H	-1.5354942	3.2308259	-6.3890580
H	-1.6825903	1.6160751	-5.6206914
S	-0.0284169	0.5381546	-3.1710483
C	-0.0124442	0.2443063	-1.4131949
C	-1.2038747	-0.0341352	-0.7362605
C	-1.1918982	-0.2667037	0.6406495
H	-2.1472505	-0.0729519	-1.2753372
C	0.0109957	-0.2265752	1.3447201
H	-2.1206363	-0.4826482	1.1624939
C	1.1922445	0.2754527	-0.7031738
C	1.2030559	0.0428316	0.6735673
H	0.0201528	-0.4103877	2.4161762
H	2.1420605	0.0681071	1.2204994
H	2.1285464	0.4790400	-1.2175694
C	5.2700546	1.4160472	-0.3579692
C	5.8964437	0.4319052	0.2992818
H	5.8330070	2.1760825	-0.8889295
H	4.1853886	1.4843588	-0.3802608
H	6.9770303	0.3632405	0.3220758
C	5.1294009	-0.6041919	1.0233495
O	3.9132920	-0.6611133	1.0908053
O	6.0179821	-1.4582583	1.5892222
C	5.4438442	-2.5412141	2.3350373
C	5.1815485	-2.1107210	3.7660578
H	6.1723922	-3.3585522	2.3244441
H	4.5322694	-2.9167330	1.8558646
H	6.1010918	-1.7399561	4.2307069
H	4.7987556	-2.9465126	4.3584815
H	4.4540172	-1.2937611	3.8035010
