40
0.00159317 (energy)
C	-4.4550711	0.7112945	-1.5195605
H	-3.9589360	2.6563239	-0.9472664
C	-3.6304686	1.6194830	-0.9803039
H	-4.2186531	-0.3470077	-1.5526202
H	-5.4140193	1.0161992	-1.9272690
C	-2.3381452	1.3491056	-0.3735612
C	-1.5155149	0.3596751	-0.7698388
H	-1.8008912	-0.2611999	-1.6137882
O	-2.0502104	2.1791857	0.6948615
C	-1.3548046	3.3543089	0.2777277
H	-1.1106487	3.9345156	1.1724694
H	-1.9845975	3.9753610	-0.3677296
H	-0.4187438	3.1094276	-0.2346639
S	0.0000000	0.0000000	0.0000000
C	0.4047037	-1.5058688	-0.8632640
C	1.2492170	-1.4722059	-1.9772392
C	1.5685897	-2.6519199	-2.6528047
H	1.6642497	-0.5294762	-2.3252000
C	1.0491324	-3.8694979	-2.2146866
H	2.2254182	-2.6206829	-3.5183154
C	-0.1070819	-2.7310459	-0.4235011
C	0.2128505	-3.9100034	-1.0997762
H	1.3002472	-4.7879713	-2.7393169
H	-0.1875099	-4.8594590	-0.7537286
H	-0.7557247	-2.7748810	0.4483089
C	3.7759377	-0.1719527	0.3446548
C	4.7744830	-1.0630907	0.3039374
H	3.9762054	0.8912463	0.2672674
H	2.7403375	-0.4831469	0.4558039
H	5.8064908	-0.7538412	0.1933635
C	4.5018991	-2.5124551	0.4096100
O	3.3977579	-3.0133741	0.5386973
O	5.6894612	-3.1637744	0.3410713
C	5.6142535	-4.5942680	0.4229213
C	5.6308747	-5.0375826	1.8738311
H	6.4948231	-4.9909207	-0.0930243
H	4.7328623	-4.9783815	-0.1035728
H	6.5171480	-4.6474349	2.3849374
H	5.6334829	-6.1288405	1.9458955
H	4.7582618	-4.6539599	2.4118903
