40
0.00159592 (energy)
C	-2.2750387	-1.0605936	4.0449973
H	-0.3758636	-0.6425039	4.8033800
C	-0.9792179	-0.7497798	3.9042267
H	-2.9326274	-1.2251215	3.1979449
H	-2.7050273	-1.1802354	5.0347297
C	-0.2686419	-0.5905026	2.6468274
C	-0.8370461	-0.1285617	1.5171121
H	-1.8774639	0.1818704	1.5355127
O	1.0480325	-1.0106060	2.7046902
C	1.9256041	0.0531280	3.0746126
H	2.9492361	-0.3318345	3.0463963
H	1.7201120	0.3955790	4.0941518
H	1.8589558	0.8934337	2.3759237
S	0.0000000	0.0000000	0.0000000
C	-1.3756952	0.4379313	-1.0451456
C	-1.6325168	1.7796824	-1.3435131
C	-2.7088446	2.1234807	-2.1641434
H	-0.9970276	2.5646187	-0.9409006
C	-3.5290314	1.1276161	-2.6931298
H	-2.9045442	3.1678771	-2.3931539
C	-2.1969762	-0.5572826	-1.5849804
C	-3.2729449	-0.2123951	-2.4053398
H	-4.3651949	1.3956041	-3.3341463
H	-3.9079795	-0.9897898	-2.8223431
H	-2.0029689	-1.6058770	-1.3716195
C	3.3065647	-0.0376497	-0.3873045
C	4.1053522	0.7868880	0.3018644
H	3.3702458	-1.1123671	-0.2553373
H	2.5741903	0.3407877	-1.0958781
H	4.8353404	0.4106289	1.0078729
C	4.0189835	2.2519293	0.1220856
O	3.2519936	2.8243052	-0.6334430
O	4.9388620	2.8246776	0.9375614
C	4.9922055	4.2579144	0.8968870
C	5.9185989	4.7163685	-0.2137697
H	5.3839224	4.5909919	1.8636098
H	3.9913241	4.6916586	0.7887562
H	6.9135752	4.2761071	-0.0908172
H	6.0123903	5.8059757	-0.2155258
H	5.5473311	4.3960430	-1.1923806
