40
0.00167682 (energy)
C	-3.4549934	-1.8776509	2.6833021
H	-1.9737280	-1.6285428	4.1326494
C	-2.2174310	-1.5455939	3.0754126
H	-3.7633184	-1.8614976	1.6432709
H	-4.1921722	-2.2004017	3.4121190
C	-1.1278288	-1.1285977	2.2092593
C	-1.3003313	-0.4409270	1.0646714
H	-2.3020124	-0.1401242	0.7725612
O	0.1136126	-1.5528200	2.6478081
C	0.7276838	-0.5903224	3.5051408
H	1.7225312	-0.9619601	3.7677788
H	0.1562394	-0.4675425	4.4310654
H	0.8467853	0.3771474	3.0066041
S	0.0000000	0.0000000	0.0000000
C	-0.9548075	0.6473580	-1.3586467
C	-1.1892526	2.0220769	-1.4609214
C	-1.9353530	2.5303108	-2.5263534
H	-0.7924703	2.7053183	-0.7140525
C	-2.4454604	1.6672696	-3.4954921
H	-2.1150332	3.5996912	-2.6015123
C	-1.4622150	-0.2127861	-2.3379650
C	-2.2081534	0.2964565	-3.4028093
H	-3.0239321	2.0637108	-4.3262110
H	-2.6000608	-0.3764118	-4.1612025
H	-1.2783713	-1.2830110	-2.2785335
C	4.2242870	3.3907491	-1.8847779
C	4.4298598	2.3850478	-1.0250208
H	4.3507254	4.4222575	-1.5741466
H	3.9262623	3.2070371	-2.9139013
H	4.7266522	2.5672622	0.0004615
C	4.2573985	0.9788314	-1.4480318
O	3.9269086	0.6150092	-2.5638817
O	4.5272999	0.1883750	-0.3795984
C	4.4136789	-1.2229441	-0.6118405
C	2.9829446	-1.6767763	-0.3905285
H	5.0726459	-1.7196260	0.1078855
H	4.7694997	-1.4926139	-1.6129695
H	2.6432165	-1.4015864	0.6133542
H	2.8974771	-2.7607864	-0.5074094
H	2.3034566	-1.1941756	-1.1001199
