40
0.00180508 (energy)
C	0.1076872	0.0946029	-2.6883762
H	-0.4596072	-1.8088860	-2.0467243
C	-0.1221182	-0.8215848	-1.7379221
H	0.4845404	1.0871891	-2.4653422
H	-0.0606758	-0.1465554	-3.7334940
C	0.0885806	-0.6463394	-0.3109549
C	-0.0563514	0.5287095	0.3301255
H	-0.3837472	1.4005990	-0.2282620
O	0.5066698	-1.8004236	0.3268206
C	-0.5972820	-2.5640120	0.8133674
H	-0.1959528	-3.4276355	1.3517947
H	-1.2126768	-2.9354408	-0.0126410
H	-1.2132141	-1.9854756	1.5095320
S	0.2585189	0.7471884	2.0248016
C	0.0946393	2.5196036	2.1161166
C	-1.1180605	3.0940112	2.5094252
C	-1.2465914	4.4825794	2.5833916
H	-1.9687626	2.4656536	2.7614981
C	-0.1625876	5.3014626	2.2693128
H	-2.1913325	4.9244433	2.8895430
C	1.1809892	3.3457060	1.8098919
C	1.0513451	4.7339884	1.8841194
H	-0.2623406	6.3823393	2.3296783
H	1.8987867	5.3713650	1.6451692
H	2.1340473	2.9135977	1.5137931
C	3.3743493	-0.7158810	1.3054710
C	3.7176038	-1.9226504	0.8377514
H	2.7179516	-0.6183240	2.1634411
H	3.7397414	0.1978733	0.8437291
H	3.3538797	-2.8334599	1.2971342
C	4.6121774	-2.0560317	-0.3318952
O	5.0996619	-1.1279527	-0.9545824
O	4.7798875	-3.3793180	-0.5768541
C	5.6320624	-3.6983080	-1.6862283
C	4.8298896	-3.7195799	-2.9738655
H	6.0471738	-4.6933126	-1.4949578
H	6.4779191	-3.0042217	-1.7522606
H	3.9904705	-4.4179118	-2.8924201
H	5.4581772	-4.0195514	-3.8172608
H	4.4045914	-2.7340166	-3.1881403
