40
-0.00126279 (energy)
C	0.8658232	4.6792263	0.1336184
H	0.1811571	4.4994335	-1.8299794
C	0.4409247	3.9657105	-0.9180135
H	1.1824123	4.2188602	1.0635778
H	0.9263930	5.7615250	0.0725004
C	0.3400617	2.5177565	-0.9858080
C	0.0566852	1.7350361	0.0723867
H	-0.1465651	2.1965779	1.0340750
O	0.6159120	2.0076499	-2.2416601
C	-0.5638690	1.9007113	-3.0386452
H	-0.2841560	1.4413322	-3.9912974
H	-0.9864347	2.8885670	-3.2496883
H	-1.3168950	1.2644022	-2.5624263
S	0.0000000	0.0000000	0.0000000
C	-0.1861921	-0.3490574	1.7378556
C	-1.4571356	-0.5665177	2.2788641
C	-1.6036641	-0.8422876	3.6399641
H	-2.3397772	-0.5239569	1.6454602
C	-0.4805565	-0.9064187	4.4638548
H	-2.5937046	-1.0105170	4.0559290
C	0.9374960	-0.4224537	2.5675018
C	0.7898253	-0.6981914	3.9283131
H	-0.5949241	-1.1238298	5.5228834
H	1.6664347	-0.7542022	4.5685646
H	1.9334682	-0.2672960	2.1592404
C	2.8226252	-1.0373158	-2.2976108
C	4.1514790	-1.1611257	-2.4057602
H	2.1692057	-1.3254763	-3.1140020
H	2.3595628	-0.6469048	-1.3949391
H	4.6135812	-1.5498630	-3.3047856
C	5.0425189	-0.7682275	-1.2931935
O	4.6741299	-0.3150062	-0.2228705
O	6.3204194	-0.9995383	-1.6839410
C	7.3294910	-0.6771767	-0.7161986
C	7.7212898	0.7837828	-0.8346648
H	8.1962644	-1.3093985	-0.9351401
H	7.0007299	-0.9229347	0.3002209
H	8.0483159	1.0126910	-1.8542629
H	8.5317865	1.0253794	-0.1412891
H	6.8703067	1.4375229	-0.6188432
