40
-0.00107707 (energy)
C	0.9582643	-0.8776950	-4.5797428
H	0.2575183	-2.7552313	-3.9961143
C	0.5126624	-1.7503657	-3.6657088
H	1.2717728	0.1288467	-4.3236640
H	1.0396503	-1.1702815	-5.6221170
C	0.3829875	-1.5049480	-2.2394217
C	0.0911660	-0.3025835	-1.7084892
H	-0.0967699	0.5377596	-2.3700627
O	0.6406530	-2.6222777	-1.4656974
C	-0.5461283	-3.3751342	-1.2141785
H	-0.2816450	-4.2072783	-0.5550886
H	-0.9505965	-3.7928107	-2.1420317
H	-1.3083919	-2.7716279	-0.7107341
S	0.0000000	0.0000000	0.0000000
C	-0.1817576	1.7726460	-0.0366169
C	-1.4531954	2.3504303	0.0332948
C	-1.5962974	3.7392930	0.0069314
H	-2.3389109	1.7245497	0.1097788
C	-0.4693582	4.5553366	-0.0845033
H	-2.5867355	4.1837823	0.0614269
C	0.9456176	2.5963018	-0.1202304
C	0.8013724	3.9848781	-0.1465868
H	-0.5811153	5.6365787	-0.1022471
H	1.6808376	4.6203513	-0.2115342
H	1.9417796	2.1621346	-0.1634970
C	3.3663634	-1.2510680	0.8997271
C	4.0133996	-1.7221572	1.9731780
H	2.3038064	-1.4260815	0.7699925
H	3.8813963	-0.6824382	0.1296201
H	3.5010221	-2.2888704	2.7407764
C	5.4618587	-1.4839718	2.1502654
O	6.1736649	-0.8676546	1.3755423
O	5.8399014	-2.0728253	3.3119682
C	7.2277030	-1.9365206	3.6497480
C	8.0355156	-3.0466942	3.0040727
H	7.3008221	-2.0143799	4.7394854
H	7.6109647	-0.9479365	3.3715365
H	7.6414946	-4.0266910	3.2926538
H	9.0857474	-2.9863984	3.3031065
H	7.9792167	-2.9897037	1.9124181
