40
-0.000944843 (energy)
C	-2.1860723	-2.6995836	-3.2551496
H	-0.3560376	-3.6964070	-3.1362967
C	-0.9326664	-2.8365054	-2.8014985
H	-2.8106471	-1.8496404	-3.0011950
H	-2.6111010	-3.4430348	-3.9225367
C	-0.2303088	-1.9074600	-1.9326437
C	-0.8345285	-1.1560108	-0.9929777
H	-1.9037326	-1.2621522	-0.8357757
O	1.1249598	-1.8273659	-2.1977818
C	1.8709478	-2.7647896	-1.4210944
H	2.9321021	-2.6097487	-1.6372619
H	1.6158174	-3.7936733	-1.6954423
H	1.7169344	-2.6134595	-0.3477348
S	0.0000000	0.0000000	0.0000000
C	-1.4044196	0.7497028	0.8013750
C	-1.8092789	0.3107311	2.0657599
C	-2.9081794	0.8991436	2.6952846
H	-1.2723186	-0.4898000	2.5686434
C	-3.6030566	1.9311586	2.0657054
H	-3.2191746	0.5544229	3.6781161
C	-2.1003314	1.7906268	0.1780301
C	-3.1990027	2.3782088	0.8083589
H	-4.4568183	2.3907565	2.5573860
H	-3.7362049	3.1868917	0.3195349
H	-1.7903554	2.1509236	-0.8001380
C	6.8488087	-3.0127843	0.1958021
C	6.2580612	-1.8254726	0.3806964
H	7.6413019	-3.3482007	0.8560584
H	6.5553299	-3.6736014	-0.6158966
H	6.5499761	-1.1664939	1.1890494
C	5.1778880	-1.3678177	-0.5192502
O	4.7416528	-1.9938211	-1.4703179
O	4.7766300	-0.1433928	-0.0961738
C	3.7196529	0.4570063	-0.8583996
C	4.2927779	1.2225435	-2.0362891
H	3.1961329	1.1484067	-0.1899475
H	2.9878878	-0.2912343	-1.1843527
H	5.0200953	1.9661838	-1.6943333
H	3.4996990	1.7329364	-2.5899756
H	4.8211353	0.5518261	-2.7212008
