31
-0.00386735 (energy)
C	-0.4714979	0.0422546	-0.0749711
O	-0.2856655	-0.1907065	1.1105735
O	0.6167878	0.1393985	-0.9367623
H	0.3588930	0.3111762	-1.8658406
N	-2.9792930	-0.0461836	0.0709962
C	-4.1984294	-1.5460239	1.5203126
H	-4.7116244	-0.7490131	2.0430822
H	-4.4371717	-2.5571944	1.8237145
C	-3.2749928	-1.3276826	0.5571701
C	-2.5377270	-2.4766582	-0.0961351
H	-1.4669529	-2.4581180	0.1378187
H	-2.9359514	-3.4259416	0.2680441
H	-2.6484203	-2.4634065	-1.1884957
C	-3.4514721	2.1383003	-0.6659470
C	-3.7660980	1.1336455	0.4535923
C	-1.8256185	0.2938432	-0.7503700
C	-1.9814354	1.8318690	-1.0200267
H	-4.1004742	1.9488182	-1.5284240
H	-3.5922005	3.1779135	-0.3559035
H	-4.8277147	0.8683596	0.4946268
H	-3.4750052	1.5189372	1.4434539
H	-1.8351167	-0.2679854	-1.6988985
H	-1.3123099	2.3925972	-0.3574365
H	-1.7262784	2.0936176	-2.0513522
C	2.7624170	-2.6382713	0.6149905
H	1.7453627	-2.7961803	0.2084831
O	3.3361309	-3.5502709	1.2208959
C	3.3509719	-1.2767147	0.3724113
H	2.7065248	-0.5031932	0.8110448
H	4.3513042	-1.2099806	0.8053762
H	3.4010263	-1.0736012	-0.7055742
