31
-0.00771039 (energy)
C	2.2893993	-0.5365546	-1.3524174
O	2.5551927	0.3285647	-2.1741490
O	2.7512848	-1.8350008	-1.5452550
H	2.4981080	-2.4457127	-0.8226651
N	1.1499223	1.0248726	0.2543500
C	1.8380087	3.3082586	0.6403785
H	0.8801338	3.7267857	0.3589643
H	2.5999500	4.0097075	0.9549121
C	2.1164913	1.9865032	0.5815413
C	3.4937684	1.4601455	0.9229630
H	3.9901369	1.0229638	0.0488202
H	4.1229711	2.2771268	1.2821200
H	3.4543451	0.6959452	1.7104426
C	-0.9722412	0.0083276	0.2870066
C	-0.2719399	1.3651763	0.1131420
C	1.4300127	-0.3613060	-0.0939080
C	0.0154580	-0.9895292	-0.3525342
H	-1.1001842	-0.2098461	1.3533107
H	-1.9571224	-0.0255268	-0.1879566
H	-0.5544938	2.0866151	0.8869507
H	-0.4914738	1.8168359	-0.8670718
H	1.9392637	-0.8825706	0.7333735
H	-0.1669321	-1.0572334	-1.4311078
H	-0.0657776	-1.9981868	0.0637111
C	1.6190545	-5.3107818	0.4879327
H	1.8457479	-5.3396809	-0.5948220
O	1.9626619	-4.3368888	1.1672548
C	0.8896559	-6.5090633	1.0275410
H	1.4750169	-7.4204625	0.8465694
H	0.7082571	-6.3958981	2.0984588
H	-0.0663728	-6.6370629	0.5027186
