31
-0.00470076 (energy)
C	-0.4622154	0.1183381	-0.0454899
O	0.0661854	0.9045440	0.7271636
O	0.2948278	-0.8998612	-0.6170165
H	-0.2260199	-1.4833504	-1.2064752
N	-2.7822043	1.0388665	0.2519048
C	-3.6374644	1.9043064	2.3389783
H	-3.8584623	2.8830350	1.9326117
H	-3.8825817	1.7454963	3.3811939
C	-3.0537248	0.9176527	1.6221700
C	-2.7052946	-0.4111431	2.2573167
H	-1.6217360	-0.5733592	2.2922740
H	-3.0735033	-0.4373067	3.2849771
H	-3.1588402	-1.2525502	1.7169364
C	-3.2072203	1.6486933	-1.9809143
C	-3.2605812	2.1798156	-0.5398207
C	-1.9223114	0.1479035	-0.5149033
C	-1.9754825	0.7196772	-1.9753021
H	-4.1164428	1.0776083	-2.2003455
H	-3.1182039	2.4459852	-2.7246406
H	-4.2760189	2.4433864	-0.2259622
H	-2.6238374	3.0685896	-0.4069717
H	-2.3018095	-0.8869120	-0.4906992
H	-1.0681649	1.3001148	-2.1778808
H	-2.0365562	-0.0763047	-2.7235885
C	3.7037849	1.9394150	-1.8416254
H	3.9455365	2.8747516	-1.3019176
O	3.6196516	1.9395753	-3.0748869
C	3.4975961	0.7284983	-0.9754586
H	2.6810518	0.9082082	-0.2634147
H	3.2646051	-0.1447686	-1.5883997
H	4.3993405	0.5318923	-0.3804658
