31
-0.00428692 (energy)
C	0.3251936	-0.3293662	0.1244322
O	0.8477179	0.4601808	-0.6488105
O	-1.0076664	-0.1592902	0.4864339
H	-1.3335271	-0.8536449	1.0954413
N	2.3150010	-1.8592976	0.2591197
C	3.7945993	-2.3214095	-1.5938707
H	4.6787142	-1.9710249	-1.0767102
H	3.9384460	-2.7013765	-2.5970904
C	2.5534474	-2.2704680	-1.0600184
C	1.3414597	-2.7120431	-1.8516059
H	0.6665885	-1.8744528	-2.0628561
H	1.6577933	-3.1274232	-2.8106370
H	0.7693585	-3.4860418	-1.3231114
C	2.7118316	-1.7167553	2.5743337
C	3.4082065	-1.6119172	1.2084054
C	1.0098649	-1.5192703	0.8088711
C	1.3044781	-1.1452394	2.3041373
H	2.6463834	-2.7675928	2.8783582
H	3.2354643	-1.1665771	3.3616327
H	4.1879157	-2.3690294	1.0745208
H	3.8678203	-0.6224309	1.0577980
H	0.3206921	-2.3780114	0.7536204
H	1.3153918	-0.0551253	2.4168462
H	0.5436169	-1.5433367	2.9822659
C	3.8997857	1.9541957	-4.1211663
H	3.6929483	1.0252032	-4.6857671
O	4.1470019	3.0042152	-4.7247849
C	3.8538599	1.8244230	-2.6244606
H	4.5830381	1.0753897	-2.2878670
H	4.0686747	2.7846292	-2.1507144
H	2.8647378	1.4690006	-2.3064578
