31
-0.00343523 (energy)
C	-0.4416298	-0.9222806	-2.2961982
O	-0.0099275	-2.0389748	-2.0493220
O	-1.0257273	-0.6674940	-3.5332918
H	-1.3534469	0.2510470	-3.6232148
N	0.0000000	0.0000000	0.0000000
C	-0.2138831	-1.2810258	2.0370467
H	0.8135203	-1.1206282	2.3380422
H	-0.8304379	-1.8641878	2.7088343
C	-0.7264998	-0.8221076	0.8731438
C	-2.1518332	-1.1312798	0.4689774
H	-2.1926653	-1.7669896	-0.4231219
H	-2.6568081	-1.6665435	1.2757248
H	-2.7244108	-0.2172877	0.2629348
C	1.4577219	1.7480618	-0.5977751
C	1.3097544	0.5573426	0.3624240
C	-0.3748965	0.3021435	-1.3745499
C	0.7583748	1.2607527	-1.8837470
H	0.9395106	2.6224397	-0.1880265
H	2.5014104	2.0233433	-0.7757119
H	1.2993269	0.8634920	1.4137348
H	2.1198536	-0.1773020	0.2318588
H	-1.3549108	0.8053945	-1.4164813
H	1.4658076	0.6991846	-2.5045136
H	0.3590350	2.0793855	-2.4900618
C	3.8499695	-3.0411238	1.2815365
H	3.0433719	-2.7732350	1.9902104
O	4.3010338	-2.1909260	0.5058323
C	4.3217217	-4.4666248	1.3484300
H	3.4846806	-5.1508016	1.1552689
H	5.1147680	-4.6415129	0.6183147
H	4.6914554	-4.6950546	2.3568596
