31
-0.0036636 (energy)
C	1.9210036	-1.5803252	0.3612226
O	2.2667103	-1.0890932	1.4258814
O	2.5602314	-2.7230355	-0.1100395
H	2.1974806	-3.0446763	-0.9610170
N	0.0000000	0.0000000	0.0000000
C	-1.3852479	0.8744192	1.7756158
H	-1.1640051	1.9086487	1.5447383
H	-2.0674930	0.6962655	2.5967853
C	-0.8303055	-0.1680455	1.1173166
C	-1.1224863	-1.5963015	1.5237999
H	-0.2286180	-2.1002191	1.9094184
H	-1.8729588	-1.6085790	2.3168878
H	-1.5118210	-2.1874239	0.6843517
C	0.6975563	0.9403002	-2.0413866
C	0.1948535	1.3091880	-0.6367867
C	0.8416629	-1.0358071	-0.5830374
C	1.5387437	-0.3301079	-1.7990078
H	-0.1539910	0.7168420	-2.6940024
H	1.2826672	1.7389700	-2.5066810
H	-0.7565953	1.8507866	-0.6592932
H	0.9237572	1.9280814	-0.0902695
H	0.2367174	-1.8908878	-0.9270228
H	2.5639739	-0.0538030	-1.5274758
H	1.5900138	-0.9829624	-2.6755932
C	3.6965474	1.6989197	5.1594600
H	3.9371882	0.7728397	5.7153833
O	3.4860024	2.7520988	5.7714213
C	3.6521890	1.5613680	3.6634018
H	2.9041644	0.8107110	3.3752699
H	3.4090572	2.5191344	3.1984855
H	4.6203989	1.2041437	3.2882036
