31
-0.00539698 (energy)
C	2.2038589	-1.1484597	1.9208982
O	1.6145327	-0.5290033	2.7945622
O	2.6663259	-2.4348874	2.1811192
H	3.1086345	-2.8487529	1.4115205
N	1.8638294	0.5956829	0.1431156
C	-0.1218849	1.9573774	-0.0545181
H	0.4161388	2.8926641	0.0329620
H	-1.1929581	2.0255378	-0.1947780
C	0.4739400	0.7471226	0.0367372
C	-0.3345036	-0.5307720	-0.0258556
H	-0.3037356	-1.0782248	0.9233462
H	-1.3803444	-0.2964820	-0.2348377
H	0.0238351	-1.2013423	-0.8180735
C	4.1217711	1.0506260	-0.3393101
C	2.7852023	1.7302638	-0.0026127
C	2.5474081	-0.6348677	0.5168681
C	4.0708848	-0.2615083	0.4706248
H	4.1694853	0.8361669	-1.4129508
H	4.9885589	1.6637863	-0.0757948
H	2.4333736	2.3870899	-0.8050381
H	2.8506653	2.3281911	0.9199968
H	2.3257096	-1.4441793	-0.1981931
H	4.4395412	-0.0877107	1.4880027
H	4.6739969	-1.0605450	0.0289849
C	5.1217856	-2.3350139	-3.5457664
H	5.3403797	-1.3735189	-4.0480879
O	4.5437418	-2.3460395	-2.4531750
C	5.5722703	-3.5655994	-4.2818375
H	6.6571989	-3.5300246	-4.4483046
H	5.3169363	-4.4642509	-3.7163229
H	5.1008323	-3.6066472	-5.2727334
