31
-0.00374238 (energy)
C	0.1872534	0.2106400	0.3876639
O	0.9901279	-0.6080275	-0.0360064
O	-1.0294393	0.3838518	-0.2651327
H	-1.6056933	1.0497763	0.1634459
N	1.5337437	0.8101547	2.4237656
C	2.8785122	-0.7641096	3.6686038
H	3.7966116	-0.2069627	3.5323529
H	2.9452842	-1.6734056	4.2519037
C	1.6976631	-0.3932781	3.1244247
C	0.4570475	-1.2440710	3.2903695
H	0.1175429	-1.6587323	2.3341122
H	0.6713518	-2.0844008	3.9538962
H	-0.3726412	-0.6737403	3.7285703
C	1.8171509	3.1064664	1.9940668
C	2.5879653	1.8315671	2.3711157
C	0.3891959	1.1447749	1.5875449
C	0.7032188	2.5890800	1.0603928
H	1.3836460	3.5582576	2.8934732
H	2.4477593	3.8558764	1.5067838
H	3.0735903	1.9074967	3.3496317
H	3.3620886	1.5858286	1.6272364
H	-0.5443779	1.1416188	2.1739560
H	1.0739571	2.5337966	0.0305055
H	-0.1861204	3.2265160	1.0612594
C	3.0850249	-1.9651293	-4.2156196
H	2.9891975	-3.0500892	-4.0200130
O	2.9669430	-1.5301280	-5.3666377
C	3.3588994	-1.1126734	-3.0083957
H	4.2895979	-1.4344170	-2.5222596
H	3.4377709	-0.0612525	-3.2927724
H	2.5562814	-1.2359231	-2.2691886
