31
-0.0036439 (energy)
C	2.3588980	-0.8371281	0.2301769
O	2.5815285	-0.2472053	1.2774339
O	3.3164791	-1.7025554	-0.2899777
H	3.0334007	-2.1363433	-1.1211807
N	0.0000000	0.0000000	0.0000000
C	-1.4907767	0.3750028	1.8636764
H	-1.6449420	1.4208802	1.6307451
H	-2.0231007	-0.0140587	2.7220346
C	-0.6572714	-0.4263605	1.1628646
C	-0.4266191	-1.8653008	1.5712317
H	0.6059764	-2.0346915	1.8978641
H	-1.0805947	-2.1214582	2.4073223
H	-0.6432255	-2.5616437	0.7503368
C	0.2175324	1.0992036	-2.0694056
C	-0.2956831	1.2916791	-0.6336994
C	1.1051620	-0.6977445	-0.6426470
C	1.4502892	0.1889322	-1.8905286
H	-0.5461538	0.5952631	-2.6725647
H	0.4707112	2.0434409	-2.5603674
H	-1.3735127	1.4808972	-0.5940717
H	0.2132624	2.1255228	-0.1250838
H	0.8042811	-1.7101203	-0.9588970
H	2.3367510	0.7971989	-1.6775304
H	1.6663030	-0.4175089	-2.7752979
C	5.1503710	-1.2451823	-4.0813825
H	5.9829933	-1.7865610	-3.5932923
O	4.3907047	-0.5397664	-3.4081012
C	5.0364755	-1.4394588	-5.5674385
H	4.9064771	-2.5048351	-5.8000769
H	4.1920449	-0.8715191	-5.9636181
H	5.9624191	-1.1177414	-6.0623525
