31
-0.00341858 (energy)
C	2.3588980	0.8653682	0.0700191
O	2.5815285	0.6692051	-1.1158460
O	3.3164791	1.5007006	0.8547981
H	3.0334007	1.6240398	1.7842376
N	0.0000000	0.0000000	0.0000000
C	-1.4907767	0.2850274	-1.8795415
H	-1.6449420	-0.7774431	-2.0183687
H	-2.0231007	0.9442013	-2.5530676
C	-0.6572714	0.7983709	-0.9469114
C	-0.4266191	2.2902023	-0.8385045
H	0.6059764	2.5610923	-1.0875036
H	-1.0805947	2.8168713	-1.5365617
H	-0.6432255	2.6637880	0.1710477
C	0.2175324	-1.7406918	1.5686555
C	-0.2956831	-1.4305193	0.1537025
C	1.1051620	0.4358672	0.8425333
C	1.4502892	-0.8241370	1.7118972
H	-0.5461538	-1.4734352	2.3077975
H	0.4707112	-2.7959035	1.7070606
H	-1.3735127	-1.5947726	0.0517482
H	0.2132624	-2.0401193	-0.6094312
H	0.8042811	1.2790254	1.4859639
H	2.3367510	-1.3228710	1.3037050
H	1.6663030	-0.5568776	2.7507235
C	7.0689782	3.2172048	-1.5841818
H	6.8893072	3.3374703	-2.6694640
O	7.9846402	3.8399583	-1.0348610
C	6.1397539	2.2713679	-0.8763591
H	6.2052533	1.2711858	-1.3251269
H	6.3883663	2.2142699	0.1854829
H	5.1000478	2.6042800	-0.9946553
