31
-0.00347013 (energy)
C	2.7279358	1.5555272	-0.0671191
O	2.4729610	1.7382702	-1.2486068
O	3.2515135	2.5964958	0.6936290
H	3.4039294	2.3514401	1.6295354
N	1.8003752	-0.7796305	0.0024094
C	-0.1331806	-1.5055724	-1.2508674
H	0.4023163	-2.2874862	-1.7740666
H	-1.1876319	-1.4070350	-1.4743384
C	0.4579227	-0.6543330	-0.3825127
C	-0.3231737	0.4645170	0.2721449
H	0.0303849	1.4504654	-0.0511774
H	-1.3774186	0.3887347	-0.0020319
H	-0.2573999	0.4209066	1.3673400
C	3.7571470	-1.9159333	0.6488368
C	2.6163404	-1.9393536	-0.3805810
C	2.5705599	0.2384988	0.7034471
C	3.9863435	-0.4103738	0.8958993
H	3.4347770	-2.4106414	1.5720459
H	4.6617887	-2.4170323	0.2921151
H	2.0112839	-2.8498465	-0.3173376
H	2.9934066	-1.8545071	-1.4119068
H	2.1176662	0.4752938	1.6803111
H	4.6807310	-0.0100389	0.1484176
H	4.4020338	-0.1976287	1.8854400
C	6.8083117	2.1548541	-1.9383134
H	6.6145298	2.9344899	-1.1772618
O	6.1182482	1.1296126	-1.9648518
C	7.9347118	2.4465112	-2.8897529
H	8.8705713	2.5916977	-2.3337539
H	8.0545122	1.6280431	-3.6027287
H	7.7392725	3.3818092	-3.4308946
