31
-0.00284729 (energy)
C	2.7279358	-0.7196367	1.3806856
O	2.4729610	0.2121902	2.1296895
O	3.2515135	-1.8989482	1.9018169
H	3.4039294	-2.5869391	1.2216393
N	1.8003752	0.3877286	-0.6763846
C	-0.1331806	1.8360691	-0.6784303
H	0.4023163	2.6801298	-1.0939879
H	-1.1876319	1.9803320	-0.4813589
C	0.4579227	0.6584322	-0.3754127
C	-0.3231737	-0.4679428	0.2662111
H	0.0303849	-0.6809117	1.2817286
H	-1.3774186	-0.1926077	0.3376701
H	-0.2573999	-1.3946044	-0.3191542
C	3.7571470	0.3960575	-1.9836653
C	2.6163404	1.2992695	-1.4892390
C	2.5705599	-0.7284524	-0.1451775
C	3.9863435	-0.5706847	-0.8033438
H	3.4347770	-0.1561111	-2.8736996
H	4.6617887	0.9555370	-2.2392689
H	2.0112839	1.6997456	-2.3093707
H	2.9934066	2.1500007	-0.9000970
H	2.1176662	-1.6928390	-0.4285390
H	4.6807310	-0.1235139	-0.0829027
H	4.4020338	-1.5340246	-1.1138714
C	6.3637498	1.3699051	4.9473082
H	6.5178477	0.3979719	5.4534530
O	6.7937550	2.4099420	5.4586111
C	5.6186793	1.3083850	3.6434051
H	4.6255046	0.8654565	3.7965887
H	5.5129683	2.3077455	3.2159937
H	6.1497345	0.6583866	2.9353826
