31
-0.00710786 (energy)
C	0.4714979	-0.0422546	-0.0749711
O	0.2856654	0.1907066	1.1105735
O	-0.6167878	-0.1393986	-0.9367624
H	-0.3588929	-0.3111765	-1.8658405
N	2.9792930	0.0461836	0.0709964
C	4.1984294	1.5460240	1.5203125
H	4.7116243	0.7490133	2.0430823
H	4.4371716	2.5571947	1.8237143
C	3.2749928	1.3276827	0.5571701
C	2.5377270	2.4766582	-0.0961353
H	1.4669529	2.4581180	0.1378184
H	2.9359515	3.4259416	0.2680437
H	2.6484204	2.4634063	-1.1884960
C	3.4514721	-2.1383005	-0.6659465
C	3.7660979	-1.1336454	0.4535927
C	1.8256186	-0.2938433	-0.7503698
C	1.9814355	-1.8318692	-1.0200264
H	4.1004742	-1.9488185	-1.5284234
H	3.5922005	-3.1779136	-0.3559028
H	4.8277147	-0.8683596	0.4946272
H	3.4750051	-1.5189371	1.4434543
H	1.8351168	0.2679851	-1.6988985
H	1.3123099	-2.3925973	-0.3574360
H	1.7262784	-2.0936180	-2.0513517
C	-2.4286894	-1.6521358	-3.8930435
H	-2.6214727	-0.6266872	-3.5244346
O	-1.3258654	-2.1795217	-3.7095891
C	-3.5784169	-2.3103382	-4.6029549
H	-3.8804060	-1.7089705	-5.4708295
H	-3.3009657	-3.3144080	-4.9307376
H	-4.4503140	-2.3669326	-3.9378189
