31
-0.00230588 (energy)
C	1.5090194	-2.2664692	1.5658164
O	2.4717460	-1.9518862	0.8813344
O	1.6849806	-2.5361057	2.9196335
H	0.8502678	-2.7616009	3.3796445
N	-0.1827092	-1.9355416	-0.2635840
C	-0.0325247	-0.2123625	-1.9501279
H	-0.0398005	-0.9115336	-2.7765601
H	0.0153361	0.8385639	-2.2046465
C	-0.0461197	-0.5956679	-0.6536158
C	0.0326231	0.4210063	0.4647252
H	0.9620616	0.3239073	1.0377446
H	0.0084243	1.4303651	0.0488437
H	-0.8097841	0.3253934	1.1624993
C	-1.0498932	-4.1218984	-0.3400314
C	-0.4862182	-3.0012286	-1.2277581
C	0.0666630	-2.4487403	1.0764407
C	-0.2434267	-3.9832037	0.9678891
H	-2.1155083	-3.9473301	-0.1530451
H	-0.9408973	-5.1140874	-0.7877009
H	-1.2153586	-2.6368427	-1.9589679
H	0.4110073	-3.3263222	-1.7775866
H	-0.5990373	-1.9709087	1.8139826
H	0.6944785	-4.5449052	0.8904536
H	-0.7830864	-4.3538535	1.8446078
C	4.3323435	0.1155986	3.6172746
H	3.7612722	-0.6695291	3.0862049
O	4.8485821	1.0425730	2.9830600
C	4.4165486	-0.0442779	5.1093963
H	4.8837350	-1.0059541	5.3603199
H	4.9952285	0.7707823	5.5491497
H	3.4086906	-0.0583617	5.5450994
