31
-0.00204965 (energy)
C	2.7279358	-1.5555272	0.0671190
O	2.4729610	-1.7382702	1.2486068
O	3.2515135	-2.5964957	-0.6936292
H	3.4039294	-2.3514401	-1.6295356
N	1.8003752	0.7796305	-0.0024094
C	-0.1331806	1.5055723	1.2508675
H	0.4023163	2.2874861	1.7740667
H	-1.1876319	1.4070349	1.4743385
C	0.4579227	0.6543330	0.3825127
C	-0.3231737	-0.4645170	-0.2721449
H	0.0303849	-1.4504654	0.0511773
H	-1.3774186	-0.3887347	0.0020318
H	-0.2573999	-0.4209065	-1.3673400
C	3.7571470	1.9159334	-0.6488367
C	2.6163404	1.9393536	0.3805811
C	2.5705599	-0.2384987	-0.7034471
C	3.9863435	0.4103739	-0.8958993
H	3.4347770	2.4106415	-1.5720458
H	4.6617887	2.4170323	-0.2921150
H	2.0112839	2.8498465	0.3173378
H	2.9934066	1.8545070	1.4119069
H	2.1176662	-0.4752937	-1.6803112
H	4.6807310	0.0100389	-0.1484176
H	4.4020338	0.1976288	-1.8854400
C	0.8534311	3.1112427	-4.3375762
H	1.0075289	2.1869419	-4.9262227
O	1.2834363	3.1884597	-3.1812263
C	0.1083605	4.2096959	-5.0428055
H	-0.8848142	3.8555707	-5.3498010
H	0.0026494	5.0795252	-4.3910396
H	0.6394156	4.4978622	-5.9597319
