31
-0.00539158 (energy)
C	0.9615017	1.8067516	-1.7802909
O	0.0897387	2.5562051	-2.1958258
O	2.0827779	1.5527182	-2.5643149
H	2.7271141	0.9541014	-2.1333943
N	-0.0835565	1.4823857	0.4826285
C	-1.2848974	3.2042113	1.6777974
H	-2.1995863	2.6290471	1.7442346
H	-1.2938165	4.1839335	2.1377771
C	-0.1798169	2.7689560	1.0317313
C	1.0514298	3.6407203	0.9110181
H	1.2489854	3.9234291	-0.1295024
H	0.9088148	4.5622562	1.4791560
H	1.9458571	3.1394104	1.3039158
C	-0.3680889	-0.8524202	0.4069221
C	-1.1108602	0.4579181	0.7118703
C	0.9453225	1.0431676	-0.4499598
C	0.5972240	-0.4609213	-0.7311377
H	0.1932932	-1.1756895	1.2908456
H	-1.0408037	-1.6642603	0.1152075
H	-1.4581473	0.5130764	1.7489044
H	-1.9838169	0.5964250	0.0547759
H	1.9491198	1.1306797	-0.0025444
H	0.0897711	-0.5478788	-1.6986608
H	1.4933390	-1.0877905	-0.7666726
C	3.1335408	0.1969580	2.9836146
H	3.3863073	1.2562807	2.7873308
O	2.9796338	-0.5882835	2.0414254
C	3.0016239	-0.1779236	4.4331455
H	2.2232574	0.4315306	4.9114319
H	2.7521794	-1.2363965	4.5330927
H	3.9394879	0.0320466	4.9643112
