31
-0.00243303 (energy)
C	1.4139641	1.6417717	2.2740041
O	0.5613679	2.4879283	2.0472462
O	1.7595401	1.3473071	3.5894336
H	2.4383925	0.6450878	3.6618978
N	1.7024783	0.9663714	-0.1299007
C	-0.0958880	0.8982198	-1.7415973
H	0.3797689	1.5964158	-2.4184697
H	-1.0543959	0.5009069	-2.0496908
C	0.4327930	0.5438380	-0.5487178
C	-0.3054874	-0.3855065	0.3903104
H	-0.6012211	0.1223388	1.3156590
H	-1.2167802	-0.7482068	-0.0896294
H	0.3021953	-1.2593575	0.6601003
C	3.9892488	1.4700441	-0.3644282
C	2.6181276	1.6879773	-1.0233825
C	2.2170013	0.8577298	1.2282925
C	3.6644172	1.4580277	1.1437563
H	4.4012922	0.5032211	-0.6749876
H	4.7136354	2.2478133	-0.6233995
H	2.5619624	1.2591673	-2.0293934
H	2.3640917	2.7571484	-1.0965233
H	2.2532382	-0.1945077	1.5552955
H	3.6628772	2.4820617	1.5342983
H	4.3822070	0.8777446	1.7313778
C	3.4732113	-3.1064305	2.8744728
H	4.3593254	-2.5277570	3.1977709
O	2.9634025	-2.8931248	1.7687569
C	2.9730537	-4.1261123	3.8589369
H	2.7092026	-3.6381650	4.8067433
H	2.1007754	-4.6476190	3.4592646
H	3.7651270	-4.8519815	4.0859770
