31
-0.00282704 (energy)
C	0.5616173	-3.0248875	0.6328075
O	1.6128956	-2.8448978	0.0355321
O	0.5557418	-3.7708306	1.8075505
H	-0.3319045	-3.8409753	2.2154322
N	-0.8079729	-1.5566330	-0.8793486
C	0.0137284	0.4706915	-1.9045775
H	-0.1795235	0.1311633	-2.9141604
H	0.4277963	1.4650766	-1.7984525
C	-0.2051546	-0.2925616	-0.8102346
C	0.1448602	0.2058515	0.5752572
H	0.9515091	-0.3828444	1.0273524
H	0.4867967	1.2414038	0.5199486
H	-0.7203900	0.1738835	1.2505352
C	-2.3547366	-3.1658122	-1.6250514
C	-1.3948637	-2.0736679	-2.1225993
C	-0.8260831	-2.5373557	0.1972575
C	-1.6278692	-3.7490775	-0.3955207
H	-3.3083939	-2.7150817	-1.3278081
H	-2.5599195	-3.9283501	-2.3821266
H	-1.9138702	-1.2644303	-2.6468676
H	-0.6285919	-2.4799669	-2.8013920
H	-1.3344950	-2.1367126	1.0896982
H	-0.9311223	-4.5342742	-0.7104507
H	-2.3118967	-4.1847389	0.3390236
C	5.9253891	-1.9573501	-0.7561679
H	6.1191708	-1.8493091	-1.8403075
O	6.6154528	-2.7256720	-0.0768258
C	4.7989888	-1.1223546	-0.2147965
H	3.8631294	-1.3685247	-0.7340405
H	4.6791886	-1.2910454	0.8574759
H	4.9944279	-0.0580355	-0.4014560
