31
-0.00699187 (energy)
C	1.6178071	-1.4395053	-1.6336454
O	1.0757309	-1.7185862	-2.6931679
O	2.6324616	-2.2557306	-1.1429934
H	3.0107181	-1.9353053	-0.2983318
N	0.3921219	0.7327098	-1.3216490
C	-0.2277995	2.2087130	-3.1309151
H	-1.2850008	2.1742648	-2.9006496
H	0.0664947	2.8318316	-3.9655592
C	0.7024027	1.4968809	-2.4555852
C	2.1601967	1.5293819	-2.8609167
H	2.5028591	0.5537611	-3.2247599
H	2.3028355	2.2489115	-3.6697922
H	2.8084955	1.8292591	-2.0269726
C	-0.6571736	0.2527189	0.7293498
C	-0.9319081	0.7805720	-0.6875415
C	1.2664002	-0.2619798	-0.7154678
C	0.4493808	-0.8000681	0.5115029
H	-0.2910292	1.0670785	1.3647476
H	-1.5454408	-0.1755385	1.2029573
H	-1.3012632	1.8114293	-0.6881462
H	-1.6665410	0.1575117	-1.2215088
H	2.2125648	0.1938347	-0.3801267
H	0.0007040	-1.7679924	0.2605393
H	1.0824192	-0.9439179	1.3923089
C	4.3931118	-4.9858035	0.0260090
H	4.1524711	-4.5991380	-0.9825369
O	4.6036569	-4.2002565	0.9569219
C	4.4374702	-6.4830187	0.1503348
H	5.1854948	-6.8971236	-0.5388845
H	4.6806020	-6.7745576	1.1742824
H	3.4692603	-6.9145482	-0.1363100
