31
-0.00277778 (energy)
C	3.2838893	-0.8799629	2.8368104
O	3.2688907	0.3285479	2.6535152
O	3.8981779	-1.3967301	3.9735109
H	3.8399820	-2.3725476	4.0334862
N	1.8587854	-1.4259595	0.8395295
C	0.0382642	-0.0437271	0.0575650
H	0.4620664	0.0921451	-0.9292551
H	-0.9176721	0.4285063	0.2438388
C	0.6578075	-0.7315004	1.0430525
C	0.0521670	-0.8352791	2.4261443
H	0.6643601	-0.3231338	3.1775177
H	-0.9344293	-0.3673887	2.4335339
H	-0.0697992	-1.8803242	2.7402865
C	3.3824080	-2.7987416	-0.3146161
C	2.4452884	-1.5944158	-0.4965376
C	2.7146254	-1.9490787	1.8955170
C	3.8998570	-2.6355025	1.1296414
H	2.8139497	-3.7303175	-0.4145915
H	4.1972400	-2.8171913	-1.0442979
H	1.6498379	-1.7865002	-1.2241726
H	2.9919994	-0.6954770	-0.8221550
H	2.1756626	-2.6856315	2.5139482
H	4.7767252	-1.9781229	1.1408305
H	4.1885600	-3.5849625	1.5905381
C	2.6198904	2.7596659	-2.6591005
H	2.5938917	3.4577381	-1.8008452
O	2.8279743	1.5555552	-2.4724709
C	2.3895355	3.3838575	-4.0068392
H	3.1455017	4.1569035	-4.1990940
H	2.4320544	2.6256283	-4.7916050
H	1.4121621	3.8839089	-4.0292741
