31
-0.00225931 (energy)
C	-2.2038588	-1.1484599	-1.9208982
O	-1.6145325	-0.5290036	-2.7945623
O	-2.6663258	-2.4348876	-2.1811191
H	-3.1086344	-2.8487530	-1.4115204
N	-1.8638294	0.5956829	-0.1431157
C	0.1218848	1.9573774	0.0545179
H	-0.4161388	2.8926641	-0.0329623
H	1.1929581	2.0255378	0.1947778
C	-0.4739400	0.7471226	-0.0367373
C	0.3345036	-0.5307720	0.0258557
H	0.3037357	-1.0782249	-0.9233461
H	1.3803443	-0.2964820	0.2348378
H	-0.0238352	-1.2013422	0.8180736
C	-4.1217711	1.0506260	0.3393098
C	-2.7852023	1.7302638	0.0026124
C	-2.5474080	-0.6348678	-0.5168681
C	-4.0708848	-0.2615084	-0.4706250
H	-4.1694854	0.8361671	1.4129505
H	-4.9885589	1.6637863	0.0757943
H	-2.4333736	2.3870900	0.8050378
H	-2.8506652	2.3281910	-0.9199972
H	-2.3257096	-1.4441793	0.1981931
H	-4.4395411	-0.0877109	-1.4880029
H	-4.6739969	-1.0605450	-0.0289850
C	5.0547896	2.0221614	-0.4297242
H	5.8656099	1.3048202	-0.6590162
O	3.9448785	1.6100473	-0.0743773
C	5.4135119	3.4735939	-0.5838022
H	5.7383679	3.6750054	-1.6133403
H	4.5584187	4.1068810	-0.3381607
H	6.2590240	3.7250471	0.0701809
