31
-0.00555901 (energy)
C	0.1892250	-1.4395051	-2.2913515
O	-0.9070773	-1.7185859	-2.7545529
O	1.2818805	-2.2557305	-2.5676977
H	2.1145798	-1.9353053	-2.1637878
N	-0.5491567	0.7327099	-1.2644929
C	-2.1870178	2.2087134	-2.2519933
H	-2.8488692	2.1742651	-1.3960438
H	-2.4980742	2.8318320	-3.0805363
C	-1.0403480	1.4968812	-2.3325830
C	-0.1841550	1.5293822	-3.5801369
H	-0.1555343	0.5537614	-4.0791161
H	-0.5948224	2.2489119	-4.2914578
H	0.8485196	1.8292593	-3.3580170
C	-0.0346072	0.2527188	0.9811375
C	-1.1558262	0.7805720	0.0723317
C	0.5102250	-0.2619797	-1.3621065
C	0.6730333	-0.8000682	0.1029775
H	0.6543016	1.0670784	1.2325274
H	-0.4106303	-0.1755386	1.9149090
H	-1.4391572	1.8114294	0.3092855
H	-2.0618152	0.1575118	0.1355018
H	1.4505823	0.1938347	-1.7134032
H	0.1680106	-1.7679925	0.1991321
H	1.7241400	-0.9439180	0.3708048
C	3.6180895	2.5053400	-0.6041460
H	2.7805665	2.8744290	0.0178761
O	3.8200931	1.2907868	-0.7139964
C	4.4458959	3.5686213	-1.2699143
H	4.8781672	4.2386414	-0.5147578
H	5.2455907	3.1166334	-1.8604835
H	3.8131633	4.1887151	-1.9187182
