31
-0.00022083 (energy)
C	-0.1892249	1.4395050	-2.2913516
O	0.9070775	1.7185857	-2.7545530
O	-1.2818803	2.2557303	-2.5676979
H	-2.1145797	1.9353051	-2.1637880
N	0.5491568	-0.7327100	-1.2644928
C	2.1870179	-2.2087135	-2.2519930
H	2.8488693	-2.1742652	-1.3960435
H	2.4980744	-2.8318322	-3.0805360
C	1.0403481	-1.4968813	-2.3325829
C	0.1841552	-1.5293824	-3.5801368
H	0.1555345	-0.5537616	-4.0791161
H	0.5948226	-2.2489121	-4.2914577
H	-0.8485194	-1.8292595	-3.3580170
C	0.0346071	-0.2527188	0.9811375
C	1.1558262	-0.7805720	0.0723318
C	-0.5102249	0.2619796	-1.3621066
C	-0.6730333	0.8000682	0.1029774
H	-0.6543017	-1.0670783	1.2325274
H	0.4106302	0.1755387	1.9149090
H	1.4391572	-1.8114294	0.3092856
H	2.0618152	-0.1575118	0.1355020
H	-1.4505822	-0.1938348	-1.7134033
H	-0.1680106	1.7679925	0.1991320
H	-1.7241401	0.9439180	0.3708047
C	-1.9721456	-0.4047916	-8.5320006
H	-2.1659274	-1.4912218	-8.6138596
O	-2.6622093	0.3976474	-9.1706836
C	-0.8457455	-0.0166402	-7.6156823
H	0.0901140	-0.4852487	-7.9482782
H	-0.7259452	1.0686348	-7.5956124
H	-1.0411846	-0.3852808	-6.5999457
