31
-0.00541962 (energy)
C	2.5122744	0.0658005	-0.0480844
O	2.5849763	0.6443170	-1.1224929
O	3.6727105	-0.1920107	0.6753852
H	3.5034479	-0.6436908	1.5277577
N	0.0000000	0.0000000	0.0000000
C	-1.4164959	1.7560022	-0.8639025
H	-1.9274747	1.1067270	-1.5633493
H	-1.7346927	2.7902917	-0.8412610
C	-0.4049607	1.3406448	-0.0687131
C	0.3207047	2.3053815	0.8440882
H	1.3674810	2.4372711	0.5465989
H	-0.1578950	3.2859028	0.8008634
H	0.3029524	1.9691995	1.8892422
C	-0.2887291	-2.3336901	0.0923815
C	-0.7505561	-1.0760578	-0.6604571
C	1.2353621	-0.4729532	0.6094434
C	1.1869084	-2.0306140	0.4254267
H	-0.8724425	-2.4513556	1.0123855
H	-0.3980195	-3.2473026	-0.4993065
H	-1.8247642	-0.8924345	-0.5534537
H	-0.5229550	-1.1359864	-1.7363832
H	1.2748367	-0.2110178	1.6796207
H	1.8276813	-2.3233835	-0.4141369
H	1.5416115	-2.5583115	1.3159157
C	4.8554512	-2.8656659	4.0096227
H	5.0960920	-1.9211821	4.5336697
O	4.6449061	-2.8622816	2.7915622
C	4.8110929	-4.0925143	4.8767753
H	4.0630683	-3.9667152	5.6709293
H	4.5679610	-4.9740270	4.2797837
H	5.7793028	-4.2388332	5.3737398
