31
-0.00183913 (energy)
C	-2.2893993	0.9667503	-1.0873443
O	-2.5551927	0.4348527	-2.1554077
O	-2.7512848	2.2528448	-0.8244577
H	-2.4981081	2.5795861	0.0634304
N	-1.1499223	-1.0500581	-0.1115162
C	-1.8380086	-3.3277686	-0.5297320
H	-0.8801336	-3.6248061	-0.9373195
H	-2.5999498	-4.0944919	-0.4740767
C	-2.1164912	-2.0656013	-0.1329540
C	-3.4937683	-1.6877600	0.3679023
H	-3.9901369	-0.9779692	-0.3039984
H	-4.1229710	-2.5783102	0.4259754
H	-3.4543451	-1.2389805	1.3692629
C	0.9722412	-0.1059874	0.2668498
C	0.2719400	-1.3215429	-0.3605990
C	-1.4300127	0.3716350	0.0353292
C	-0.0154580	1.0504271	0.0071650
H	1.1001842	-0.2656686	1.3434678
H	1.9571224	0.0882724	-0.1678907
H	0.5544938	-2.2641318	0.1197968
H	0.4914739	-1.4107114	-1.4361753
H	-1.9392638	0.5785165	0.9910024
H	0.1669321	1.4829421	-0.9832064
H	0.0657775	1.8558910	0.7432889
C	1.0900246	2.6631317	3.8035383
H	0.9222417	1.9124415	4.5990859
O	0.1918771	3.4567050	3.5009086
C	2.4467795	2.6279382	3.1577399
H	2.6266727	1.6411037	2.7107019
H	2.5240608	3.3990682	2.3883487
H	3.2287138	2.7807897	3.9134043
