31
-0.00178746 (energy)
C	-2.1491379	-3.4409928	-1.7738464
O	-2.4487543	-2.4468234	-2.4189647
O	-2.3149525	-4.7029800	-2.3363238
H	-2.0300226	-5.4294678	-1.7445179
N	-1.2132360	-2.1654385	0.1794106
C	-0.0112612	-0.0790990	-0.0175065
H	-0.6979255	0.4664705	0.6171033
H	0.8320105	0.4753475	-0.4086566
C	-0.1840366	-1.3770078	-0.3546014
C	0.7702684	-2.0746595	-1.2996396
H	0.2792636	-2.3568754	-2.2382044
H	1.5964378	-1.4062012	-1.5505498
H	1.1969345	-2.9818682	-0.8517459
C	-2.6455610	-2.9884749	1.8554370
C	-2.0773871	-1.6875795	1.2667615
C	-1.6257851	-3.4652003	-0.3321048
C	-2.7892922	-3.9065902	0.6238989
H	-1.9327752	-3.4153547	2.5700584
H	-3.5983751	-2.8405263	2.3721415
H	-1.4783215	-1.1248546	1.9903302
H	-2.8740684	-1.0229273	0.8972389
H	-0.7953667	-4.1891618	-0.2904746
H	-3.7548697	-3.7301378	0.1363585
H	-2.7310928	-4.9702040	0.8740751
C	3.3392960	-1.5800143	2.5045816
H	3.5578901	-1.2522859	3.5386965
O	2.7612522	-2.6540922	2.3039971
C	3.7897806	-0.6414369	1.4205087
H	4.8747092	-0.4836762	1.4844497
H	3.5344465	-1.0423110	0.4373092
H	3.3183425	0.3415329	1.5521517
