31
-0.00517672 (energy)
C	1.6178071	-1.3588592	1.7013155
O	1.0757309	-2.3538233	2.1601406
O	2.6324616	-0.7339254	2.4199397
H	3.0107181	0.0422627	1.9577084
N	0.3921219	-1.4288039	-0.4920764
C	-0.2277995	-3.4668884	-1.6314801
H	-1.2850008	-3.2341393	-1.6375404
H	0.0664947	-4.3970558	-2.1001977
C	0.7024027	-2.6782100	-1.0477321
C	2.1601967	-3.0830273	-1.0093543
H	2.5028591	-3.2719281	0.0146254
H	2.3028355	-4.0045591	-1.5774929
H	2.8084955	-2.3138258	-1.4494885
C	-0.6571736	0.6743852	-0.3755298
C	-0.9319081	-0.8126411	-0.6493230
C	1.2664002	-0.6591059	0.3822394
C	0.4493808	0.6426624	0.6990918
H	-0.2910292	1.1587178	-1.2878531
H	-1.5454408	1.2151636	-0.0360197
H	-1.3012632	-0.9922431	-1.6644144
H	-1.6665410	-1.2303030	0.0569940
H	2.2125648	-0.4080108	-0.1248816
H	0.0007040	0.5635898	1.6958905
H	1.0824192	1.5350662	0.6878058
C	5.0598436	0.5354218	-2.6961926
H	5.8283540	1.0002748	-2.0497514
O	3.9811898	0.1724622	-2.2137213
C	5.4336801	0.3942250	-4.1451190
H	6.3443087	-0.2117989	-4.2427793
H	4.6207454	-0.0717237	-4.7060162
H	5.6610076	1.3791577	-4.5741215
