31
-0.00503236 (energy)
C	1.6178071	2.1528121	0.3261490
O	1.0757309	3.0476483	0.9584006
O	2.6324616	2.4626919	-0.5743717
H	3.0107181	1.6742939	-1.0154548
N	0.3921219	0.2882512	1.4834186
C	-0.2277995	0.3205408	3.8181535
H	-1.2850008	0.1989180	3.6196170
H	0.0664947	0.3797032	4.8580609
C	0.7024027	0.4317423	2.8432639
C	2.1601967	0.6673871	3.1746571
H	2.5028591	1.6486299	2.8262602
H	2.3028355	0.6361305	4.2567964
H	2.8084955	-0.0983811	2.7285762
C	-0.6571736	-0.6624109	-0.3962698
C	-0.9319081	-0.1560097	1.0284294
C	1.2664002	0.6605820	0.3796828
C	0.4493808	0.2841001	-0.9061078
H	-0.2910292	-1.6946724	-0.3595526
H	-1.5454408	-0.6387757	-1.0343528
H	-1.3012632	-0.9453036	1.6915148
H	-1.6665410	0.6645097	1.0369767
H	2.2125648	0.0958547	0.4157885
H	0.0007040	1.1868894	-1.3360283
H	1.0824192	-0.1718758	-1.6733092
C	6.5093442	1.8534164	0.7765311
H	6.6094987	1.1245948	1.6031936
O	5.6524267	1.6844555	-0.0982013
C	7.4669741	3.0111892	0.8163474
H	8.5023669	2.6455782	0.7979838
H	7.2975938	3.6767725	-0.0327026
H	7.3448735	3.5701201	1.7536313
