31
-0.00473497 (energy)
C	2.2893993	-0.4582924	1.3809025
O	2.5551927	-1.6492111	1.4542976
O	2.7512848	0.4124215	2.3632497
H	2.4981080	1.3447258	2.2022718
N	1.1499223	-0.6216050	-0.8536188
C	1.8380087	-2.1226459	-2.6170659
H	0.8801338	-2.6241459	-2.6705141
H	2.5999500	-2.4578087	-3.3088953
C	2.1164913	-1.1479423	-1.7223860
C	3.4937684	-0.5252673	-1.6455941
H	3.9901369	-0.7522548	-0.6949468
H	4.1229711	-0.9202497	-2.4458697
H	3.4543451	0.5663262	-1.7576201
C	-0.9722412	0.1781049	-0.2252127
C	-0.2719399	-0.9730595	-0.9641902
C	1.4300127	0.2164136	0.3041807
C	0.0154580	0.5314187	0.9061139
H	-1.1001842	1.0306428	-0.9018097
H	-1.9571224	-0.1012615	0.1603914
H	-0.5544938	-1.0283191	-2.0206939
H	-0.4914738	-1.9491201	-0.5036240
H	1.9392637	1.1474917	0.0055087
H	-0.1669321	-0.1100105	1.7758688
H	-0.0657776	1.5716527	1.2356041
C	4.0611256	3.6612600	-2.3833581
H	3.9740267	2.9460939	-3.2233189
O	3.9807633	3.2600070	-1.2169319
C	4.2758218	5.0960981	-2.7760708
H	3.4471101	5.4426931	-3.4078587
H	4.3501875	5.7282881	-1.8887251
H	5.1916053	5.1907832	-3.3745593
