31
-0.00779553 (energy)
C	0.8696974	-0.8184517	2.1859511
O	-0.1170976	-1.1825426	2.8098074
O	1.9709309	-0.3156703	2.8727163
H	2.7153547	-0.0743230	2.2838159
N	-0.0287631	-1.5552561	-0.0322967
C	-1.1300529	-3.5741756	-0.7620461
H	-1.9516005	-3.0479007	-1.2305641
H	-1.1533700	-4.6549053	-0.8147740
C	-0.1135463	-2.9489432	-0.1247159
C	1.0087298	-3.7338845	0.5181171
H	1.0695669	-3.5413388	1.5961404
H	0.8391316	-4.8035743	0.3806252
H	1.9851403	-3.4939672	0.0761256
C	-0.6907439	0.7314229	-0.0918233
C	-1.0987798	-0.6835644	-0.5478582
C	1.0168178	-0.8155620	0.6531414
C	0.8371206	0.6309378	0.1046903
H	-0.9672930	1.5007572	-0.8180864
H	-1.1755384	0.9752602	0.8596123
H	-1.1590650	-0.7660515	-1.6435447
H	-2.0713446	-0.9839955	-0.1384295
H	2.0135159	-1.2072365	0.4075353
H	1.2327494	1.3956048	0.7805513
H	1.3600014	0.7141065	-0.8544330
C	5.2782985	-1.3676120	-0.7616014
H	4.7304280	-1.7279944	-1.6529742
O	4.7225297	-0.6126883	0.0441426
C	6.6926391	-1.8589724	-0.6301341
H	7.2791847	-1.5608596	-1.5094178
H	7.1549477	-1.4558831	0.2733960
H	6.7093941	-2.9563860	-0.5952649
