31
-0.00407938 (energy)
C	0.4919322	2.1674792	1.1245690
O	1.6510432	2.0782161	1.5040646
O	-0.4108229	2.9420818	1.8471855
H	-1.3047045	2.9658965	1.4476514
N	0.8774189	0.8458227	-0.9671670
C	2.6103916	0.9074155	-2.6447907
H	2.7961930	-0.1579669	-2.6017460
H	3.2129174	1.4770820	-3.3403074
C	1.6884880	1.5329330	-1.8771888
C	1.4723308	3.0271869	-1.9738936
H	1.6650124	3.5253701	-1.0159810
H	2.1535261	3.4532796	-2.7130294
H	0.4487488	3.2761717	-2.2846679
C	0.0924676	-0.9000602	0.4493101
C	1.0461559	-0.5973482	-0.7235045
C	-0.1150127	1.4502821	-0.0954328
C	-0.9588491	0.2277160	0.3722462
H	-0.3573657	-1.8941253	0.3765269
H	0.6338903	-0.8431172	1.3997474
H	0.7861083	-1.1668503	-1.6284962
H	2.0900128	-0.8267965	-0.4755339
H	-0.7394304	2.1735235	-0.6378006
H	-1.4703683	0.4015411	1.3241700
H	-1.7139530	0.0055741	-0.3897972
C	3.6324240	-0.6310291	2.9548539
H	3.1652861	0.3517031	3.1563544
O	3.7055280	-1.0566322	1.7966096
C	4.1443308	-1.3630902	4.1636203
H	3.3255836	-1.5368398	4.8746133
H	4.5870625	-2.3181514	3.8730629
H	4.8931507	-0.7527105	4.6856535
