31
-0.00395848 (energy)
C	0.2010047	-1.4838632	-1.9905692
O	-0.9408080	-1.8420931	-2.2424785
O	1.2673048	-2.3300100	-2.2807252
H	2.1390289	-1.9406810	-2.0622324
N	-0.4821694	0.8055979	-1.2406517
C	-1.9902489	2.4470392	-2.1641102
H	-2.5262481	2.5896503	-1.2347117
H	-2.3232529	3.0330679	-3.0108567
C	-0.9588423	1.5824789	-2.3024106
C	-0.2466768	1.4182400	-3.6270678
H	-0.3168298	0.3883716	-3.9976874
H	-0.6993746	2.0721564	-4.3749727
H	0.8174969	1.6810571	-3.5581076
C	-0.4167382	-0.2861902	0.8746215
C	-1.1412965	0.8162413	0.0769309
C	0.6022345	-0.1578560	-1.3183507
C	0.9556155	-0.4061334	0.1779552
H	-0.3245356	-0.0418951	1.9365213
H	-0.9627769	-1.2320762	0.7918365
H	-1.0350051	1.8063772	0.5452262
H	-2.2142120	0.6118812	-0.0272911
H	1.4648122	0.2506824	-1.8625882
H	1.4382989	-1.3737797	0.3473756
H	1.6356170	0.3829073	0.5174426
C	5.4760253	0.5376562	0.0304372
H	5.6586685	-0.5520220	0.0922900
O	4.3190562	0.9704917	-0.0152581
C	6.7075819	1.3989681	0.0083418
H	7.3406350	1.1306978	-0.8480003
H	6.4347566	2.4545934	-0.0532898
H	7.3065063	1.2246596	0.9120671
