31
-0.00404732 (energy)
C	0.3074176	0.0741504	-0.3607781
O	0.9221971	0.1371282	0.6944959
O	-1.0607490	-0.1808885	-0.3457341
H	-1.4614493	-0.1883870	-1.2393794
N	2.2813216	0.7074620	-1.7655395
C	3.9573201	2.4296314	-1.5497369
H	4.7862550	1.7464518	-1.6822030
H	4.2072889	3.4710559	-1.3940085
C	2.6622659	2.0383648	-1.5614009
C	1.5410524	3.0352023	-1.3662957
H	0.9350257	2.7930958	-0.4848053
H	1.9549184	4.0349113	-1.2206918
H	0.8713916	3.0775051	-2.2358123
C	2.4438454	-1.6630189	-1.9238723
C	3.2802505	-0.3684892	-1.8882415
C	0.9165925	0.2097490	-1.7684986
C	1.0598101	-1.1960122	-2.4233080
H	2.8836265	-2.4272693	-2.5706540
H	2.3562439	-2.0830467	-0.9160952
H	3.8734380	-0.2313700	-2.8049172
H	3.9737082	-0.3492269	-1.0382307
H	0.2549110	0.8541275	-2.3635551
H	0.2516855	-1.8801258	-2.1459111
H	1.0565437	-1.0817535	-3.5128828
C	2.9657062	3.5182461	3.4153476
H	2.1591085	3.2679339	4.1304189
O	3.4167703	4.6681484	3.3676204
C	3.4374584	2.3832507	2.5502966
H	2.6004173	1.9833024	1.9625463
H	4.2305047	2.7185879	1.8785799
H	3.8071922	1.5600573	3.1759665
