31
-0.00354766 (energy)
C	0.3074176	-0.2753678	-0.2446051
O	0.9221971	0.6700152	0.2284915
O	-1.0607490	-0.3898587	-0.0162130
H	-1.4614493	-1.1675275	-0.4565418
N	2.2813216	-1.1752710	-1.4954498
C	3.9573201	-0.1272958	-2.8789910
H	4.7862550	-0.5836046	-2.3535731
H	4.2072889	0.5282812	-3.7030268
C	2.6622659	-0.3330304	-2.5459761
C	1.5410524	0.3343544	-3.3117101
H	0.9350257	0.9766943	-2.6612945
H	1.9549184	0.9603056	-4.1046816
H	0.8713916	-0.3975176	-3.7831038
C	2.4438454	-2.4976317	0.4782804
C	3.2802505	-1.8195097	-0.6249998
C	0.9165925	-1.4266902	-1.0658973
C	1.0598101	-2.6966524	-0.1758771
H	2.8836265	-3.4398863	0.8167498
H	2.3562439	-1.8348851	1.3459237
H	3.8734380	-2.5448146	-1.2020863
H	3.9737082	-1.0737476	-0.2166760
H	0.2549110	-1.6198350	-1.9214737
H	0.2516855	-2.7984764	0.5552811
H	1.0565437	-3.5831225	-0.8196154
C	3.6364574	4.2055240	-1.7159567
H	3.7552720	3.8396382	-2.7535470
O	3.5159142	5.4158681	-1.4956190
C	3.6356188	3.1434383	-0.6524477
H	4.5742588	2.5743619	-0.6864138
H	3.5138773	3.5920460	0.3357359
H	2.8238373	2.4268702	-0.8350795
