31
-0.00368843 (energy)
C	-1.9254240	1.4838632	0.5436095
O	-2.3717797	1.8420931	-0.5371130
O	-2.0260108	2.3300101	1.6440951
H	-1.6594642	1.9406811	2.4646349
N	-1.3055312	-0.8055980	-0.2594073
C	-2.4768355	-2.4470393	-1.5842188
H	-1.6546318	-2.5896504	-2.2734633
H	-3.3685435	-3.0330680	-1.7651278
C	-2.4339330	-1.5824789	-0.5444661
C	-3.6147995	-1.4182400	0.3869042
H	-3.9919705	-0.3883716	0.3821743
H	-4.4299522	-2.0721564	0.0709563
H	-3.3620952	-1.6810571	1.4229360
C	0.7889682	0.2861901	-0.5622834
C	-0.1224218	-0.8162414	-1.1373165
C	-1.1937451	0.1578560	0.8220143
C	0.3411925	0.4061334	0.9101960
H	1.8507462	0.0418951	-0.6558784
H	0.6126223	1.2320762	-1.0856511
H	0.3572163	-1.8063773	-1.1139585
H	-0.4113702	-0.6118814	-2.1758341
H	-1.5799295	-0.2506823	1.7659933
H	0.5918561	1.3737798	1.3561267
H	0.7936033	-0.3829073	1.5209154
C	4.1137667	-2.9591452	-0.6172580
H	4.8668725	-2.5724797	-1.3299320
O	3.4128450	-2.1735983	0.0305360
C	4.0282766	-4.4563605	-0.5166795
H	4.9991704	-4.8704653	-0.2134809
H	3.2630780	-4.7478994	0.2058528
H	3.7924132	-4.8878900	-1.4984962
