31
-0.003833 (energy)
C	0.3054631	-0.1941261	-0.3149158
O	-0.7566478	-0.7968333	-0.3796274
O	0.4432175	0.8629153	0.5799797
H	1.3372670	1.2626567	0.5699122
N	1.4760025	-1.7030064	-1.9347471
C	1.5653292	-4.1032992	-2.1628350
H	1.3138612	-4.0893558	-3.2154433
H	1.7285858	-5.0754252	-1.7160475
C	1.6692190	-2.9850797	-1.4083929
C	2.0191209	-3.0616054	0.0614993
H	1.2270631	-2.6329504	0.6874455
H	2.1492356	-4.1042700	0.3578512
H	2.9543200	-2.5331476	0.2904735
C	0.7958694	0.0158660	-3.4359332
C	1.0536846	-1.5004774	-3.3316062
C	1.5480818	-0.4613601	-1.1841931
C	1.6556897	0.6164586	-2.3032009
H	1.0606268	0.4184127	-4.4176013
H	-0.2630079	0.2313730	-3.2569146
H	1.8451706	-1.8358941	-4.0186382
H	0.1531409	-2.0876025	-3.5508736
H	2.4306990	-0.4374617	-0.5303167
H	1.3088855	1.6030096	-1.9799829
H	2.7030526	0.7031044	-2.6126560
C	2.0606647	3.9672592	1.5997917
H	2.6211836	4.7364010	1.0351481
O	2.6687331	3.1141926	2.2559489
C	0.5635970	4.0540410	1.4981292
H	0.2510912	3.9727400	0.4484734
H	0.0940505	3.2606185	2.0834355
H	0.2168375	5.0321456	1.8571314
