31
-0.00371465 (energy)
C	-0.4122281	0.0314292	-0.2434026
O	0.4363722	0.6908859	-0.8269414
O	-0.0748233	-0.6437520	0.9259730
H	-0.8297111	-1.1222723	1.3264499
N	-2.2682970	0.7127709	-1.7801254
C	-2.9396918	2.8444204	-2.6893605
H	-2.9761098	2.4842736	-3.7093520
H	-3.1897616	3.8858038	-2.5335191
C	-2.5938141	2.0662660	-1.6380588
C	-2.5543227	2.6221896	-0.2315525
H	-1.5517941	2.5416987	0.2059026
H	-2.8281716	3.6789701	-0.2427513
H	-3.2569510	2.1051424	0.4357329
C	-1.6446079	-1.3372467	-2.8189241
C	-2.1929034	0.0747174	-3.1059419
C	-1.8664110	-0.1774005	-0.7048139
C	-2.0237579	-1.5889208	-1.3438002
H	-2.0620996	-2.0924119	-3.4906672
H	-0.5553069	-1.3489782	-2.9329322
H	-3.1904013	0.0470382	-3.5698377
H	-1.5331950	0.6455353	-3.7713176
H	-2.5192286	-0.0688167	0.1722136
H	-1.3962949	-2.3466728	-0.8640836
H	-3.0699863	-1.9024401	-1.2580645
C	4.0580964	-2.4182798	-1.0354589
H	5.1174605	-2.3177055	-1.3391287
O	3.4531252	-3.4770082	-1.2382300
C	3.4544273	-1.2051373	-0.3851152
H	3.5131018	-0.3440877	-1.0642306
H	2.4119365	-1.3927044	-0.1193931
H	4.0225577	-0.9375309	0.5156778
