31
-0.00756437 (energy)
C	0.8696974	0.7781319	2.2006263
O	-0.1170976	0.9002292	2.9125611
O	1.9709309	1.6047289	2.4035373
H	2.7153547	1.4110739	1.7972784
N	-0.0287631	-1.2121553	0.9749586
C	-1.1300529	-3.2278111	1.7136746
H	-1.9516005	-3.1258188	1.0164860
H	-1.1533700	-4.0895910	2.3679624
C	-0.1135463	-2.3391874	1.8000062
C	1.0087298	-2.5272823	2.7969954
H	1.0695669	-1.6868437	3.4990431
H	0.8391316	-3.4350903	3.3792538
H	1.9851403	-2.6276016	2.3041944
C	-0.6907439	0.5012796	-0.5404903
C	-1.0987798	-0.8757971	0.0197030
C	1.0168178	-0.2049255	1.0245685
C	0.8371206	0.5506200	-0.3253615
H	-0.9672930	0.6237909	-1.5913587
H	-1.1755384	1.2996408	0.0316161
H	-1.1590650	-1.6432797	-0.7666199
H	-2.0713446	-0.8427650	0.5264570
H	2.0135159	-0.6628382	1.0881868
H	1.2327494	1.5708240	-0.2991405
H	1.3600014	-0.0021816	-1.1135525
C	4.6021022	3.4146955	-1.1313847
H	5.0758405	2.9789462	-2.0315388
O	3.9802736	2.6903233	-0.3461292
C	4.7778602	4.8978286	-0.9625545
H	4.3649399	5.4282536	-1.8309974
H	4.2807161	5.2405760	-0.0526376
H	5.8459323	5.1486546	-0.9164938
