31
-0.00362022 (energy)
C	-0.4919321	2.4213894	-0.3154279
O	-1.6510431	2.4673047	-0.7025669
O	0.4108231	3.3964271	-0.7295358
H	1.3047047	3.2821568	-0.3459514
N	-0.8774189	0.4640229	1.1981281
C	-2.6103915	-0.0518796	2.7956447
H	-2.7961930	-1.0382895	2.3908138
H	-3.2129172	0.2455512	3.6440541
C	-1.6884879	0.7984498	2.2882744
C	-1.4723306	2.1695142	2.8902120
H	-1.6650122	2.9652786	2.1604571
H	-2.1535259	2.3171112	3.7305047
H	-0.4487486	2.2971923	3.2674020
C	-0.0924676	-0.6921069	-0.7300520
C	-1.0461560	-0.8087767	0.4755668
C	0.1150128	1.3301795	0.5857030
C	0.9588491	0.3412987	-0.2719136
H	0.3573656	-1.6511159	-1.0016484
H	-0.6338903	-0.3135294	-1.6036953
H	-0.7861083	-1.6534590	1.1311998
H	-2.0900128	-0.9395767	0.1640748
H	0.7394305	1.8243034	1.3427251
H	1.4703683	0.8302178	-1.1069777
H	1.7139530	-0.1280806	0.3681960
C	4.0574920	-2.5818066	2.1854553
H	4.5214311	-3.1915149	1.3869572
O	3.6203996	-1.4542483	1.9293800
C	4.0115574	-3.2232418	3.5439578
H	5.0275991	-3.4711288	3.8790072
H	3.5396265	-2.5543657	4.2667736
H	3.4541172	-4.1681444	3.4967053
