31
-0.00379949 (energy)
C	1.2957071	-1.7205022	2.4335937
O	2.3535035	-1.7561880	1.8209628
O	1.3041158	-1.5073550	3.8089657
H	0.4065591	-1.4736451	4.1994457
N	-0.1187124	-1.9203138	0.3768418
C	-0.0371107	-0.8343404	-1.7761589
H	-0.0810655	-1.7623233	-2.3314340
H	0.0194276	0.0766236	-2.3577505
C	-0.0399205	-0.7758808	-0.4245060
C	0.0280976	0.5492339	0.3023469
H	0.9149391	0.6118525	0.9446087
H	0.0825828	1.3659862	-0.4200456
H	-0.8567488	0.7208073	0.9299643
C	-0.0351566	-4.2149162	1.0080955
C	-0.1096602	-3.2719742	-0.2092622
C	-0.1038439	-1.9379049	1.8293162
C	-0.6111373	-3.3714331	2.1656219
H	-0.5917139	-5.1432792	0.8525357
H	1.0072649	-4.4772667	1.2184325
H	-1.0212945	-3.4324941	-0.8043452
H	0.7501801	-3.3956023	-0.8794589
H	-0.7757530	-1.1758245	2.2475387
H	-0.2856918	-3.7187901	3.1512457
H	-1.7064523	-3.3744743	2.1429338
C	3.9641085	-2.5475376	-2.4989397
H	3.5975023	-2.2491669	-3.4995184
O	4.5067910	-3.6467645	-2.3401692
C	3.7500800	-1.5390491	-1.4052209
H	2.6797722	-1.3161097	-1.3013649
H	4.1404752	-1.9147472	-0.4570545
H	4.2473059	-0.5938634	-1.6605711
