31
-0.00379153 (energy)
C	-0.4919321	2.3832445	0.5317587
O	-1.6510431	2.5588001	0.1836710
O	0.4108231	3.4411134	0.4761071
H	1.3047047	3.2025409	0.7974758
N	-0.8774189	0.0262549	1.2845773
C	-2.6103915	-1.0049177	2.6093029
H	-2.7961930	-1.7933794	1.8915142
H	-3.2129172	-1.0155972	3.5082742
C	-1.6884879	-0.0323386	2.4233604
C	-1.4723306	1.0501658	3.4579284
H	-1.6650122	2.0475306	3.0443506
H	-2.1535259	0.9014645	4.2980264
H	-0.4487486	1.0411374	3.8560396
C	-0.0924676	-0.4006753	-0.9227390
C	-1.0461560	-0.9226549	0.1702687
C	0.1150128	1.0496376	1.0053290
C	0.9588491	0.4137158	-0.1387841
H	0.3573656	-1.2089575	-1.5059565
H	-0.6338903	0.2538749	-1.6142140
H	-0.7861083	-1.9406363	0.4974638
H	-2.0900128	-0.9390301	-0.1671743
H	0.7394305	1.2550454	1.8856974
H	1.4703683	1.1587582	-0.7562676
H	1.7139530	-0.2462868	0.3021849
C	3.5049023	-2.5179526	1.9939470
H	2.8989166	-3.1059405	1.2786607
O	3.8580582	-1.3682661	1.7084404
C	3.8412222	-3.2155874	3.2820746
H	4.3957746	-4.1409672	3.0766705
H	4.4380785	-2.5649154	3.9246982
H	2.9207419	-3.5072344	3.8050194
