31
-0.00378586 (energy)
C	-0.4122281	0.0537148	0.2394730
O	0.4363722	-0.3663899	1.0133676
O	-0.0748233	0.2882276	-1.0903061
H	-0.8297111	0.6009185	-1.6302949
N	-2.2682970	-0.0609469	1.9165527
C	-2.9396918	-1.7530656	3.5000212
H	-2.9761098	-1.0657807	4.3353223
H	-3.1897616	-2.7849468	3.7097522
C	-2.5938141	-1.3814059	2.2459763
C	-2.5543227	-2.3848567	1.1144297
H	-1.5517941	-2.4588384	0.6758269
H	-2.8281716	-3.3740753	1.4863933
H	-3.2569510	-2.1272162	0.3105460
C	-1.6446079	2.2207296	2.1915570
C	-2.1929034	0.9920831	2.9441856
C	-1.8664110	0.4077624	0.6016339
C	-2.0237579	1.9527039	0.7193163
H	-2.0620996	3.1601024	2.5645073
H	-0.5553069	2.2707466	2.2946772
H	-3.1904013	1.1767548	3.3706383
H	-1.5331950	0.6832617	3.7646654
H	-2.5192286	0.0057660	-0.1853645
H	-1.3962949	2.5006851	0.0093637
H	-3.0699863	2.2179923	0.5315212
C	2.6672918	-2.4793310	-1.0809921
H	1.8149244	-1.7763182	-1.1428450
O	2.4636536	-3.6977134	-1.0352970
C	4.0289881	-1.8434278	-1.0588964
H	4.1131856	-1.1610526	-0.2025543
H	4.8067736	-2.6075142	-0.9972648
H	4.1774948	-1.2375897	-1.9626217
