31
-0.00751977 (energy)
C	0.8696974	2.0320726	-1.1484450
O	-0.1170976	2.7119896	-1.3923135
O	1.9709309	2.0883640	-1.9977193
H	2.7153547	1.5249433	-1.7017305
N	-0.0287631	1.1706353	1.0244401
C	-1.1300529	2.2481434	2.8811970
H	-1.9516005	1.5438359	2.9018197
H	-1.1533700	3.0421376	3.6162687
C	-0.1135463	2.1788557	1.9910822
C	1.0087298	3.1933606	2.0031941
H	1.0695669	3.7388021	1.0536144
H	0.8391316	3.9244124	2.7961024
H	1.9851403	2.7254667	2.1875634
C	-0.6907439	-0.6193254	-0.3998089
C	-1.0987798	0.1714842	0.8590704
C	1.0168178	1.0445879	0.0238978
C	0.8371206	-0.4160327	-0.4857564
H	-0.9672930	-1.6755025	-0.3379777
H	-1.1755384	-0.1945444	-1.2853864
H	-1.1590650	-0.4696208	1.7514367
H	-2.0713446	0.6648035	0.7385433
H	2.0135159	1.1867555	0.4638066
H	1.2327494	-0.5673666	-1.4950145
H	1.3600014	-1.0962563	0.1955148
C	4.6990758	3.9684884	-1.7030817
H	4.8573220	3.6007864	-2.7347485
O	4.7596648	3.1842249	-0.7495243
C	4.4173529	5.4395268	-1.5775579
H	3.5197545	5.7025129	-2.1530596
H	4.2751217	5.7135011	-0.5300441
H	5.2471344	6.0204143	-2.0016399
