31
-0.00279713 (energy)
C	0.3640469	-0.8942178	-2.3105367
O	1.4210510	-1.4420918	-2.0310735
O	-0.1796985	-1.0559694	-3.5814923
H	-1.0368605	-0.5961036	-3.6955790
N	0.0000000	0.0000000	0.0000000
C	0.1983046	-0.9951159	2.1890246
H	0.8174761	-0.1978790	2.5794791
H	-0.0375182	-1.8033931	2.8690072
C	-0.2674057	-1.0207562	0.9190453
C	-1.1261870	-2.1630750	0.4225848
H	-0.6581816	-2.6815073	-0.4230559
H	-1.2701549	-2.8930920	1.2214917
H	-2.1200091	-1.8224315	0.1023132
C	1.0412968	1.9009561	-0.9862707
C	0.8886250	1.1256385	0.3374452
C	-0.4449520	0.0306690	-1.3824939
C	-0.2212636	1.5177108	-1.7876130
H	1.1243363	2.9802829	-0.8314461
H	1.9384171	1.5660185	-1.5179701
H	0.4359759	1.7407340	1.1297418
H	1.8515949	0.7572813	0.7126453
H	-1.5050302	-0.2445315	-1.4698850
H	-0.1000295	1.6521303	-2.8670849
H	-1.0845221	2.1079779	-1.4611033
C	3.2013026	-4.2955028	1.5590468
H	3.9544085	-4.4151006	2.3609887
O	2.5003809	-5.2552340	1.2189926
C	3.1158125	-2.9229806	0.9524562
H	4.0867062	-2.6375494	0.5259105
H	2.3506138	-2.8961442	0.1737859
H	2.8799491	-2.1816743	1.7274704
