31
-0.00336493 (energy)
C	1.1255348	-1.3712687	-1.7485458
O	2.1621382	-0.7763118	-2.0073950
O	0.4952102	-2.1182241	-2.7394541
H	-0.3130136	-2.5728188	-2.4242764
N	1.1668387	-0.7706223	0.6821441
C	2.9156824	-0.7976708	2.3441379
H	2.7288757	0.2180088	2.6680406
H	3.7150564	-1.3274256	2.8457969
C	2.2144769	-1.4047795	1.3591907
C	2.5203997	-2.8264063	0.9417470
H	2.8123698	-2.8827609	-0.1139456
H	3.3479304	-3.2176142	1.5367706
H	1.6608686	-3.4936657	1.0909627
C	-0.2429559	0.9733210	-0.1189824
C	0.8248335	0.6387645	0.9414645
C	0.3860812	-1.3483887	-0.3980485
C	-0.8464313	-0.4001510	-0.4829561
H	-0.9961633	1.6736375	0.2525660
H	0.2285472	1.4207735	-1.0005623
H	0.4423952	0.7528294	1.9669876
H	1.7137271	1.2748049	0.8461030
H	0.0751375	-2.3759379	-0.1643923
H	-1.3250896	-0.4098585	-1.4672416
H	-1.5855609	-0.7115110	0.2633557
C	3.7926158	1.8286008	-5.1283762
H	3.2215444	1.0434732	-5.6594457
O	4.3088545	2.7555752	-5.7625909
C	3.8768210	1.6687245	-3.6362545
H	4.3440073	0.7070482	-3.3853308
H	4.4555010	2.4837847	-3.1965011
H	2.8689631	1.6546408	-3.2005513
