31
-0.00296119 (energy)
C	1.6963003	2.5467182	-1.0946025
O	0.9288895	2.6269506	-2.0433736
O	2.1277892	3.7071719	-0.4587445
H	2.7203679	3.5328565	0.3013105
N	1.6627688	0.0434436	-1.0377957
C	-0.1247889	-1.5717550	-1.1688694
H	0.3527345	-2.1509794	-1.9485392
H	-1.0881176	-1.9242115	-0.8237999
C	0.4180543	-0.4532873	-0.6352568
C	-0.2950542	0.3223062	0.4504695
H	-0.5073312	1.3518349	0.1375505
H	-1.2476661	-0.1571915	0.6839565
H	0.2904553	0.3649263	1.3787240
C	3.6152836	0.3699642	-2.3613263
C	2.4181975	-0.5760335	-2.1405928
C	2.2974679	1.2468788	-0.5287641
C	3.7718853	1.0915648	-1.0056518
H	4.5224751	-0.1652409	-2.6552171
H	3.3819144	1.0961257	-3.1474181
H	2.7367260	-1.5907320	-1.8579375
H	1.7907947	-0.6626445	-3.0364930
H	2.2429578	1.2972886	0.5674229
H	4.2964680	2.0486301	-1.0885064
H	4.3119995	0.4628195	-0.2892755
C	4.7436647	-2.9334503	-5.5743628
H	4.9525898	-4.0046529	-5.3914468
O	4.7340251	-2.1341230	-4.6314975
C	4.4854487	-2.5610629	-7.0074470
H	3.6274956	-3.1260777	-7.3956758
H	4.2896924	-1.4902626	-7.0948700
H	5.3496565	-2.8302811	-7.6291220
