31
-0.00302367 (energy)
C	4.1804596	-0.3061574	1.8450248
O	4.0679949	0.8966909	1.6552070
O	5.1055465	-0.7724102	2.7745265
H	5.1008361	-1.7473675	2.8675592
N	2.2889871	-0.9139492	0.3206705
C	0.0610705	-0.0295576	0.0456282
H	0.1549635	0.0816630	-1.0268590
H	-0.8821190	0.2702745	0.4835723
C	1.0528410	-0.5051350	0.8334152
C	0.8702774	-0.6357972	2.3295664
H	1.6006070	-0.0298199	2.8794024
H	-0.1267090	-0.2927098	2.6127854
H	0.9709439	-1.6759214	2.6676523
C	4.1028969	-1.1645436	-1.2016950
C	2.6177303	-0.7619999	-1.1074139
C	3.4062077	-1.4120117	1.1042290
C	4.3196404	-2.0711942	0.0287894
H	4.3394283	-1.6732276	-2.1403676
H	4.7395446	-0.2762091	-1.1292134
H	1.9712547	-1.4123049	-1.7158055
H	2.4495490	0.2719575	-1.4336349
H	3.0780660	-2.1519529	1.8471614
H	5.3680821	-2.1299279	0.3375715
H	3.9601592	-3.0873388	-0.1673284
C	7.3971978	-5.3414354	-0.6899651
H	7.0633722	-5.7786739	-1.6501557
O	7.1327367	-4.1645612	-0.4197068
C	8.1648670	-6.2686919	0.2100112
H	9.0627340	-6.6365769	-0.3043257
H	8.4530148	-5.7564599	1.1304274
H	7.5555977	-7.1493755	0.4529118
