31
-0.00324415 (energy)
C	1.3133312	-0.0500395	2.1315235
O	0.4552651	-0.6604547	2.7533266
O	2.5331110	0.2326562	2.7392826
H	3.1575464	0.7038086	2.1499483
N	0.0000000	0.0000000	0.0000000
C	-1.2553583	-1.6837937	-1.1875703
H	-2.1407842	-1.0681795	-1.2795200
H	-1.3077358	-2.6758936	-1.6168664
C	-0.1258701	-1.2735291	-0.5660155
C	1.0830026	-2.1771582	-0.4613637
H	1.3492513	-2.3750989	0.5840263
H	0.8712220	-3.1363920	-0.9377281
H	1.9628765	-1.7475187	-0.9588835
C	-0.6198678	2.1236389	0.8812404
C	-1.1320184	0.9423411	0.0333681
C	1.1691683	0.5016603	0.7011381
C	0.9155935	2.0375814	0.7469367
H	-1.0142834	3.0849212	0.5403807
H	-0.9123085	1.9907525	1.9283945
H	-1.3990607	1.2493603	-0.9890775
H	-2.0153435	0.4678726	0.4787775
H	2.0945234	0.2729459	0.1547443
H	1.4451968	2.5330956	1.5667000
H	1.2499006	2.4805780	-0.1976435
C	-2.7200062	-4.6091937	2.3302285
H	-3.2678766	-3.6570510	2.4638146
O	-3.2757750	-5.6844503	2.5811396
C	-1.3056656	-4.4773677	1.8389641
H	-0.7191199	-3.8649420	2.5367791
H	-0.8433571	-5.4613923	1.7362845
H	-1.2889107	-3.9588584	0.8711414
