31
-0.00301667 (energy)
C	2.8906704	1.3216611	0.6771996
O	2.8031283	1.9910412	-0.3425013
O	3.3875827	1.9020157	1.8405643
H	3.3952473	1.2890574	2.6043984
N	1.8027193	-0.6965770	-0.3296831
C	-0.1694492	-0.9844436	-1.6894967
H	0.3409458	-1.5734731	-2.4404667
H	-1.2229419	-0.7979480	-1.8528162
C	0.4457638	-0.4809620	-0.5947775
C	-0.3146684	0.3409882	0.4225776
H	0.1021769	1.3509719	0.5178779
H	-1.3574983	0.4395286	0.1148450
H	-0.3056087	-0.1238564	1.4176312
C	4.0850545	-1.2719302	-0.6910386
C	2.6684799	-1.4125272	-1.2828146
C	2.5355082	-0.1708593	0.8091117
C	3.8356269	-1.0282560	0.8127877
H	4.7035827	-2.1552601	-0.8725982
H	4.5933904	-0.4073738	-1.1313216
H	2.3540574	-2.4639999	-1.3635056
H	2.5932206	-0.9660147	-2.2821823
H	1.9748124	-0.3044901	1.7444734
H	4.6737148	-0.5300947	1.3102512
H	3.6368495	-1.9716903	1.3330359
C	5.8317107	-4.2473707	-3.8629335
H	4.9941877	-3.8932283	-4.4935849
O	6.0337144	-3.7352272	-2.7561743
C	6.6595172	-5.3555836	-4.4508778
H	7.0917885	-5.0366090	-5.4087106
H	7.4592120	-5.6410375	-3.7641602
H	6.0267846	-6.2275112	-4.6634928
