31
-0.00322596 (energy)
C	2.4406761	-1.2473024	1.7460526
O	1.9857652	-0.6989056	2.7399541
O	2.9346681	-2.5449832	1.8416952
H	3.2540509	-2.9000037	0.9866081
N	1.8439477	0.6338025	0.2045939
C	-0.1565608	1.9553689	-0.0652893
H	0.3690996	2.9002427	-0.0172342
H	-1.2296891	2.0035599	-0.1971002
C	0.4596280	0.7555734	0.0405084
C	-0.3244266	-0.5364571	-0.0286741
H	-0.2155781	-1.1239813	0.8910414
H	-1.3861790	-0.3192230	-0.1605639
H	-0.0080629	-1.1657765	-0.8713871
C	4.0972643	1.2344222	0.6867590
C	2.7065645	1.8172137	0.3658881
C	2.5715729	-0.6152816	0.3479918
C	4.0478727	-0.1897667	0.0931840
H	4.9090828	1.8333224	0.2647613
H	4.2435710	1.1834403	1.7710594
H	2.7087493	2.4128305	-0.5594244
H	2.3326858	2.4594353	1.1730680
H	2.2442286	-1.3585132	-0.3920021
H	4.7729346	-0.8696633	0.5514980
H	4.2294942	-0.1685978	-0.9870032
C	-0.4645662	5.1895400	2.3285299
H	-0.9212980	4.2280451	2.6310303
O	0.5110501	5.2005655	1.5695415
C	-1.1112290	6.4201257	2.8999879
H	-1.0867714	6.3845510	3.9973407
H	-0.5986440	7.3187771	2.5503323
H	-2.1689352	6.4611734	2.6077791
