31
-0.00293204 (energy)
C	-0.7473254	-3.1406591	-0.3729991
O	0.2400242	-3.2725934	-1.0824053
O	-1.0642674	-4.1279406	0.5554264
H	-1.8585682	-3.9159650	1.0877528
N	-1.2810354	-0.8453005	-1.2198864
C	0.0779655	1.1081507	-1.6180744
H	-0.2938244	1.2560875	-2.6237094
H	0.8153030	1.8170702	-1.2644258
C	-0.3260571	0.0950514	-0.8175830
C	0.2300938	-0.0686070	0.5798370
H	0.7378927	-1.0331138	0.7013934
H	0.9586662	0.7185538	0.7834641
H	-0.5539404	-0.0003093	1.3459440
C	-2.6972462	-2.1192206	-2.6489202
C	-1.8381602	-0.8407932	-2.5837696
C	-1.7462542	-1.9700220	-0.4269265
C	-3.0409528	-2.4100340	-1.1723098
H	-3.5903900	-1.9917268	-3.2668620
H	-2.1123487	-2.9454962	-3.0671016
H	-2.4346132	0.0696642	-2.7458760
H	-1.0329072	-0.8470498	-3.3289552
H	-1.9711530	-1.6684925	0.6053714
H	-3.3017838	-3.4576547	-0.9920767
H	-3.8744139	-1.7839415	-0.8352791
C	4.0387400	-1.8506230	-0.6144816
H	4.0764954	-1.4695493	-1.6527206
O	3.4998285	-1.1795274	0.2727710
C	4.6736537	-3.1953787	-0.3963192
H	5.7317942	-3.1652262	-0.6886826
H	4.5906155	-3.4918850	0.6514238
H	4.1904669	-3.9487423	-1.0325481
