31
-0.00116778 (energy)
C	-2.1674234	4.0262570	0.2561681
O	-2.6717254	3.4008964	1.1781913
O	-2.2257463	5.4168496	0.2549778
H	-1.7734994	5.8211047	-0.5139628
N	-1.2179446	1.9917104	-0.8528160
C	-0.0121027	0.0805222	-0.0074083
H	-0.6580795	-0.6386898	-0.4940937
H	0.8021843	-0.3200742	0.5823034
C	-0.1874365	1.4188922	-0.0991413
C	0.7431126	2.3809434	0.6061292
H	0.2040139	3.0091416	1.3256074
H	1.5045511	1.8243836	1.1559984
H	1.2622266	3.0438078	-0.0991549
C	-3.2535592	2.1784267	-2.0743204
C	-2.2357527	1.1616372	-1.5203719
C	-1.4821705	3.4144900	-0.9796830
C	-2.4390929	3.4831345	-2.2064831
H	-3.6867829	1.8599217	-3.0265202
H	-4.0726078	2.3188113	-1.3607634
H	-1.7714077	0.5617437	-2.3175413
H	-2.6947571	0.4663858	-0.8064297
H	-0.5592507	3.9794275	-1.1699542
H	-3.0659329	4.3804037	-2.2088394
H	-1.8404370	3.4779283	-3.1239922
C	4.6677369	2.4710993	-0.8467561
H	4.6417380	2.4880207	-1.9529300
O	4.8758206	3.5134650	-0.2157354
C	4.4373821	1.1266312	-0.2155507
H	5.1933483	0.4108646	-0.5651793
H	4.4799010	1.2030309	0.8729951
H	3.4600087	0.7291486	-0.5197913
