31
-0.0057477 (energy)
C	1.4334917	-2.0338189	-0.1153294
O	0.7207366	-2.9040495	-0.5951230
O	2.4368337	-2.3843092	0.7833431
H	2.9641687	-1.6183039	1.0905443
N	0.4281124	-0.1929988	-1.4832947
C	-0.1335559	-0.0133987	-3.8228848
H	-1.1415610	0.3320252	-3.6330881
H	0.1556263	-0.1190053	-4.8604404
C	0.7454452	-0.3176376	-2.8404455
C	2.1424688	-0.8014686	-3.1615424
H	2.3269581	-1.8018736	-2.7515878
H	2.2764262	-0.8558548	-4.2436705
H	2.9133465	-0.1264917	-2.7660073
C	-0.8814358	0.0392465	0.4920049
C	-0.9237341	0.1916019	-1.0415037
C	1.3087579	-0.5212570	-0.3756294
C	0.6176566	0.1713470	0.8360347
H	-1.4933805	0.7873669	1.0035244
H	-1.2465126	-0.9517179	0.7825571
H	-1.1433246	1.2245974	-1.3508057
H	-1.6786425	-0.4595692	-1.4996113
H	2.3193599	-0.1198867	-0.5328680
H	0.8785121	-0.2870566	1.7951209
H	0.9203496	1.2239124	0.8629037
C	6.4009608	-1.9065743	-0.8567595
H	6.5011153	-1.1777527	-1.6834221
O	5.5440433	-1.7376133	0.0179728
C	7.3585907	-3.0643470	-0.8965758
H	8.3939835	-2.6987360	-0.8782123
H	7.1892104	-3.7299303	-0.0475258
H	7.2364901	-3.6232780	-1.8338597
