31
-0.00569432 (energy)
C	0.1618548	0.3293881	-0.3089841
O	-0.9856606	0.0380168	-0.6153081
O	0.7581532	-0.2851606	0.7882438
H	1.6835289	0.0003833	0.9344064
N	0.5056802	1.8342356	-2.2807735
C	0.0021646	1.5951077	-4.6282613
H	-0.5068587	2.5479510	-4.6945902
H	0.0589168	1.0112359	-5.5377522
C	0.5432914	1.1194105	-3.4831477
C	1.2403833	-0.2227722	-3.4446888
H	0.7543302	-0.9096358	-2.7412117
H	1.2110701	-0.6842536	-4.4336678
H	2.2953543	-0.1309345	-3.1533193
C	-0.1488628	3.4598210	-0.6684123
C	-0.2126243	3.1157630	-2.1698145
C	1.0430311	1.3797670	-1.0099766
C	1.0879210	2.6862200	-0.1634445
H	-0.0687734	4.5355621	-0.4890259
H	-1.0496002	3.0988402	-0.1603994
H	0.2773850	3.8793587	-2.7925343
H	-1.2453845	3.0106239	-2.5249555
H	2.0489912	0.9540273	-1.1279952
H	1.0636051	2.4971620	0.9143735
H	2.0100908	3.2292481	-0.3978846
C	2.5461044	-2.6484868	2.5266024
H	2.7138874	-3.3991771	1.7310549
O	3.4442519	-1.8549136	2.8292322
C	1.1893494	-2.6836802	3.1724005
H	1.0094561	-3.6705146	3.6194386
H	1.1120681	-1.9125501	3.9417917
H	0.4074153	-2.5308286	2.4167361
