31
-0.00222336 (energy)
C	2.1674236	3.8710586	1.1363412
O	2.6717256	3.5987622	0.0560369
O	2.2257466	5.1773812	1.6130703
H	1.7734997	5.2942637	2.4739015
N	1.2179447	1.5799154	1.4825897
C	0.0121027	0.0731323	0.0345018
H	0.6580795	-0.7691621	0.2458515
H	-0.8021844	-0.1016119	-0.6566580
C	0.1874366	1.2994142	0.5784519
C	-0.7431125	2.4446634	0.2447552
H	-0.2040137	3.2810526	-0.2164768
H	-1.5045511	2.1097345	-0.4623075
H	-1.2622265	2.8263309	1.1342184
C	3.2535594	1.3375922	2.6942891
C	2.2357527	0.5715842	1.8259854
C	1.4821707	2.8734999	2.0884248
C	2.4390931	2.5184144	3.2647177
H	3.6867830	0.7126240	3.4801292
H	4.0726080	1.7135615	2.0717792
H	1.7714077	-0.2647792	2.3699041
H	2.6947571	0.1624441	0.9173093
H	0.5592509	3.3392910	2.4604413
H	3.0659332	3.3607657	3.5738160
H	1.8404372	2.1997157	4.1251136
C	2.5326122	-0.2717214	-3.9697245
H	3.0063506	0.6904244	-4.2425435
O	1.9107835	-0.9192609	-4.8194502
C	2.7083701	-0.6955303	-2.5384407
H	2.2954499	0.0676116	-1.8652704
H	2.2112259	-1.6511409	-2.3589059
H	3.7764422	-0.7844469	-2.2994236
