31
-0.00198438 (energy)
C	4.4790560	0.7823546	-0.5477865
O	4.0591992	0.8646268	-1.6934194
O	5.6943891	1.3741742	-0.2163266
H	5.9286784	1.2704733	0.7289637
N	2.4358891	-0.3784281	0.3175387
C	0.0758403	0.0242848	0.0185387
H	-0.1413750	-0.9986182	-0.2605701
H	-0.7616424	0.7094636	0.0398330
C	1.3187560	0.4642392	0.3218401
C	1.5679235	1.9074224	0.7013247
H	2.2650454	2.3923435	0.0072197
H	0.6298404	2.4652375	0.6740083
H	1.9797659	2.0016681	1.7151283
C	3.7966353	-2.2809988	-0.1288443
C	2.3372394	-1.7845100	-0.1111660
C	3.8005247	0.0254431	0.6088632
C	4.5220215	-1.3334282	0.8504461
H	3.8847997	-3.3305441	0.1652547
H	4.2185818	-2.1753425	-1.1340856
H	1.7133180	-2.3525951	0.5952112
H	1.8664182	-1.8538050	-1.0997502
H	3.8494960	0.6602407	1.5042806
H	5.6010485	-1.2806652	0.6745406
H	4.3562319	-1.6434836	1.8880483
C	4.6204418	4.1914460	2.6060259
H	4.6581973	3.4782552	3.4513166
O	4.0815303	3.8642807	1.5427530
C	5.2553555	5.5297189	2.8609540
H	6.3134960	5.4013907	3.1253729
H	5.1723173	6.1666929	1.9778088
H	4.7721687	6.0200461	3.7164791
