31
-0.00647703 (energy)
C	1.9631516	-1.5214964	-0.3190923
O	1.3695024	-2.2799431	-1.0726587
O	3.3172356	-1.7221651	-0.0674189
H	3.7024487	-1.0482752	0.5298267
N	0.0000000	0.0000000	0.0000000
C	-1.5858239	0.9685500	-1.5389875
H	-2.4493008	0.6485087	-0.9703082
H	-1.7818706	1.5204621	-2.4490751
C	-0.3118679	0.7025500	-1.1692968
C	0.8598938	1.1697944	-2.0044780
H	1.4676302	0.3264242	-2.3541813
H	0.4979589	1.7058664	-2.8839857
H	1.5165431	1.8519641	-1.4479258
C	-0.2810833	-1.3930668	1.9107642
C	-1.0523367	-0.5758063	0.8553481
C	1.3384622	-0.3421532	0.4490684
C	1.1158439	-0.7366558	1.9391221
H	-0.7682935	-1.3774032	2.8896378
H	-0.1977398	-2.4375462	1.5916580
H	-1.6529714	0.2271222	1.3086815
H	-1.7300518	-1.2031300	0.2629461
H	2.0211338	0.5148865	0.3679449
H	1.8938838	-1.4029404	2.3247965
H	1.1069243	0.1731514	2.5493762
C	4.6658156	-1.4418337	4.1754803
H	5.1297548	-2.2878744	3.6336700
O	4.2287231	-0.4698584	3.5492005
C	4.6198811	-1.5799504	5.6714388
H	5.6359228	-1.6982942	6.0710646
H	4.1479500	-0.7041950	6.1218945
H	4.0624410	-2.4840298	5.9502118
