31
-0.00499131 (energy)
C	0.7473255	1.8933566	2.5333906
O	-0.2400240	2.5736876	2.2929459
O	1.0642675	1.5829576	3.8526143
H	1.8585684	1.0159615	3.9352014
N	1.2810354	1.4791028	0.1221082
C	-0.0779656	0.8472179	-1.7687241
H	0.2938245	1.6441548	-2.3996587
H	-0.8153031	0.1864894	-2.2058419
C	0.3260571	0.6605219	-0.4911086
C	-0.2300938	-0.4678500	0.3493340
H	-0.7378927	-0.0908673	1.2453996
H	-0.9586663	-1.0377767	-0.2305536
H	0.5539403	-1.1654670	0.6732400
C	2.6972464	3.3536425	0.5108381
C	1.8381603	2.6580066	-0.5637370
C	1.7462543	1.3547404	1.4926255
C	3.0409529	2.2202672	1.5009953
H	3.5903902	3.8250487	0.0914543
H	2.1123489	4.1289361	1.0173230
H	2.4346132	2.3431659	-1.4332695
H	1.0329073	3.3064845	-0.9309116
H	1.9711531	0.3099795	1.7476425
H	3.3017840	2.5879913	2.4983779
H	3.8744140	1.6153437	1.1272987
C	3.8036243	-3.0117701	2.7723794
H	4.6102221	-3.6631592	2.3855006
O	3.3525600	-2.1002155	2.0697975
C	3.3318722	-3.3251829	4.1646079
H	4.1689133	-3.2537623	4.8719326
H	2.5388258	-2.6365287	4.4636222
H	2.9621386	-4.3579586	4.2144555
