31
-0.00483866 (energy)
C	1.8243858	-0.6088419	-1.5828918
O	1.4716393	-0.1666865	-2.6671389
O	2.6088183	-1.7573513	-1.5305223
H	2.8554602	-2.0145932	-0.6182650
N	0.8333512	1.2842710	-0.2772467
C	0.8790499	3.6779851	-0.5763348
H	-0.1938324	3.7869034	-0.4842752
H	1.4458518	4.5844216	-0.7448850
C	1.5145249	2.4859888	-0.5007860
C	3.0177944	2.3894697	-0.6412694
H	3.3036839	1.7587117	-1.4917521
H	3.4391502	3.3827742	-0.8077302
H	3.4901600	1.9762419	0.2600672
C	-0.9658135	-0.2683465	-0.1254299
C	-0.6372724	1.2358779	-0.2030160
C	1.4428424	-0.0324611	-0.2068948
C	0.3236941	-0.9002728	0.4410720
H	-1.8393444	-0.4738201	0.4994996
H	-1.1671390	-0.6623671	-1.1273920
H	-0.9896823	1.7846896	0.6833138
H	-1.0834713	1.7100857	-1.0860826
H	2.3454548	-0.0247594	0.4194997
H	0.4183134	-1.9646791	0.2041916
H	0.3696901	-0.7834783	1.5294112
C	6.5601389	-0.4751939	-0.0634277
H	6.3590752	-1.3472059	-0.7143895
O	5.6209821	0.1688825	0.4173658
C	8.0120096	-0.1636501	0.1691449
H	8.5151309	0.0278210	-0.7880670
H	8.1166828	0.7073348	0.8195337
H	8.5151973	-1.0269487	0.6244810
