31
-0.00455303 (energy)
C	0.3074176	0.3495182	-0.1161729
O	0.9221971	-0.5328870	0.4660044
O	-1.0607490	0.2089702	-0.3295211
H	-1.4614493	0.9791406	-0.7828376
N	2.2813216	1.8827330	-0.2700897
C	3.9573201	2.5569273	1.3292540
H	4.7862550	2.3300564	0.6713701
H	4.2072889	2.9427748	2.3090183
C	2.6622659	2.3713953	0.9845752
C	1.5410524	2.7008479	1.9454144
H	0.9350257	1.8164016	2.1764892
H	1.9549184	3.0746058	2.8839897
H	0.8713916	3.4750228	1.5472914
C	2.4438454	0.8346128	-2.4021528
C	3.2802505	1.4510205	-1.2632418
C	0.9165925	1.6364392	-0.7026014
C	1.0598101	1.5006401	-2.2474310
H	2.8836265	1.0126169	-3.3874039
H	2.3562439	-0.2481617	-2.2620189
H	3.8734380	2.3134445	-1.6028310
H	3.9737082	0.7245207	-0.8215547
H	0.2549110	2.4739625	-0.4420815
H	0.2516855	0.9183506	-2.7011923
H	1.0565437	2.5013689	-2.6932674
C	-2.2671526	-2.9830043	3.0823581
H	-2.8276714	-3.2092553	2.1554213
O	-2.8752211	-2.7512869	4.1333443
C	-0.7700848	-2.9841358	2.9486980
H	-0.4575789	-2.2471501	2.1968742
H	-0.3005385	-2.7525664	3.9070709
H	-0.4233255	-3.9641697	2.5949964
