31
-0.00455226 (energy)
C	1.4334917	-1.4838632	-1.3956612
O	0.7207366	-1.8420931	-2.3225779
O	2.4368337	-2.3300100	-0.9325290
H	2.9641687	-1.9406810	-0.2048205
N	0.4281124	0.8055979	-1.2603268
C	-0.1335559	2.4470392	-2.9371120
H	-1.1415610	2.5896503	-2.5696850
H	0.1556263	3.0330679	-3.7998082
C	0.7454452	1.5824789	-2.3800809
C	2.1424688	1.4182400	-2.9370559
H	2.3269581	0.3883716	-3.2660605
H	2.2764262	2.0721564	-3.8009729
H	2.9133465	1.6810571	-2.2001917
C	-0.8814358	-0.2861902	0.4021248
C	-0.9237341	0.8162413	-0.6746787
C	1.3087579	-0.1578560	-0.6228064
C	0.6176566	-0.4061334	0.7505794
H	-1.4933805	-0.0418951	1.2748539
H	-1.2465126	-1.2320762	-0.0122791
H	-1.1433246	1.8063772	-0.2476210
H	-1.6786425	0.6118812	-1.4441742
H	2.3193599	0.2506824	-0.4852622
H	0.8785121	-1.3737797	1.1906259
H	0.9203496	0.3829073	1.4477383
C	3.6705648	-0.4047901	3.3259270
H	3.5747374	-1.4912203	3.1386586
O	3.5524829	0.3976490	2.3931032
C	3.9444392	-0.0166389	4.7519037
H	4.8751377	-0.4852475	5.0986793
H	4.0233108	1.0686360	4.8442845
H	3.1418212	-0.3852797	5.4043771
