31
-0.00380189 (energy)
C	-0.3127573	-0.2881782	-0.2441797
O	-0.9205172	0.4351778	0.5452727
O	1.0640621	-0.2459621	-0.3764031
H	1.4457877	0.4282990	0.2273237
N	-2.2809296	-1.6678895	-0.8902085
C	-3.9570035	-2.8245034	0.4053358
H	-4.7877561	-2.3568988	-0.1073002
H	-4.2046384	-3.5325604	1.1855824
C	-2.6615222	-2.5591157	0.1165580
C	-1.5380005	-3.2409416	0.8666360
H	-0.8896753	-2.5165673	1.3755428
H	-1.9495454	-3.9088121	1.6260286
H	-0.9058035	-3.8416828	0.1997496
C	-2.4375549	0.0369541	-2.5477159
C	-3.2776481	-0.9113827	-1.6669986
C	-0.9120942	-1.2974685	-1.2200916
C	-1.0579435	-0.6516283	-2.6275699
H	-2.8835284	0.1933895	-3.5341005
H	-2.3423794	1.0145840	-2.0626284
H	-3.8905641	-1.6015218	-2.2661578
H	-3.9541599	-0.3622666	-0.9995445
H	-0.2414769	-2.1605616	-1.2541858
H	-0.2380511	0.0322721	-2.8619843
H	-1.0633882	-1.4506983	-3.3769616
C	3.2406945	-2.3156533	1.1318146
H	3.0338572	-2.6643844	0.1021603
O	3.4879105	-1.1232931	1.3443555
C	3.1947686	-3.3771289	2.1949413
H	3.9239469	-4.1672798	1.9713176
H	3.4095834	-2.9460866	3.1750606
H	2.2056466	-3.8538066	2.2100843
