31
-0.00680426 (energy)
C	-0.4784841	0.0021692	0.1074048
O	-0.2876593	-0.5050987	-0.9980889
O	0.5572254	0.4817005	0.8898703
H	1.4190194	0.3455175	0.4386567
N	-2.9618656	0.0362530	-0.0548081
C	-4.4732856	0.8204849	-1.7653649
H	-5.0141355	-0.1151455	-1.8260013
H	-4.8063730	1.6168377	-2.4183024
C	-3.4259673	1.0204452	-0.9315572
C	-2.7037817	2.3495073	-0.8885865
H	-1.6403385	2.2433522	-1.1372824
H	-3.1467631	3.0369067	-1.6120137
H	-2.7682386	2.8187567	0.1018431
C	-2.6655241	-2.0999895	0.9586037
C	-3.5539268	-1.3120126	-0.0265842
C	-1.8130969	0.1643520	0.8304409
C	-2.0176585	-1.0059058	1.8344468
H	-3.2370945	-2.8224142	1.5482891
H	-1.8924937	-2.6496297	0.4104723
H	-4.6001938	-1.2565936	0.3098738
H	-3.5519727	-1.7575466	-1.0296730
H	-1.7907902	1.1258467	1.3508734
H	-1.0842167	-1.3185342	2.3096766
H	-2.7074978	-0.6739984	2.6180855
C	3.1875723	1.5022335	-2.3760586
H	3.9673809	2.2655227	-2.5600994
O	3.3945580	0.5860666	-1.5724372
C	1.9155535	1.6766537	-3.1574828
H	2.1293199	1.6636227	-4.2345997
H	1.2057533	0.8831095	-2.9144847
H	1.4669108	2.6539746	-2.9352738
