31
-0.00753894 (energy)
C	-0.4784841	0.0707001	0.0808825
O	-0.2876592	-1.0284872	-0.4399093
O	0.5572253	0.9410017	0.3720491
H	1.4190193	0.5466450	0.1139362
N	-2.9618656	-0.0074589	-0.0652885
C	-4.4732856	-0.5062272	-1.8797456
H	-5.0141354	-1.2619381	-1.3247842
H	-4.8063729	-0.3158858	-2.8918105
C	-3.4259672	0.1829126	-1.3695439
C	-2.7037818	1.2286543	-2.1909310
H	-1.6403386	0.9874763	-2.3132079
H	-3.1467632	1.2902228	-3.1869602
H	-2.7682388	2.2247561	-1.7338455
C	-2.6655240	-0.9925070	2.0841802
C	-3.5539268	-1.0221483	0.8229807
C	-1.8130970	0.6596978	0.5305112
C	-2.0176586	0.4085908	2.0518515
H	-3.2370944	-1.1668741	3.0002710
H	-1.8924936	-1.7658878	2.0175891
H	-4.6001938	-0.7634240	1.0450998
H	-3.5519725	-2.0082202	0.3409538
H	-1.7907904	1.7307731	0.3111487
H	-1.0842168	0.4745756	2.6168523
H	-2.7074980	1.1665599	2.4388076
C	3.0966615	-1.9604091	-1.7369545
H	3.0630544	-2.6658553	-0.8850161
O	3.2661567	-0.7526932	-1.5351974
C	2.9250955	-2.5796267	-3.0957086
H	1.9625313	-3.1052858	-3.1522729
H	2.9716137	-1.8142383	-3.8732647
H	3.7070088	-3.3306986	-3.2698238
