31
-0.00359883 (energy)
C	-0.4210108	-0.1761291	-0.1794882
O	-0.6428573	0.6739108	0.6831053
O	0.8626691	-0.5401810	-0.5462704
H	1.5243320	-0.0252491	-0.0345324
N	-2.7896331	-0.8935960	-0.4431701
C	-4.4856632	-1.5352774	1.1496707
H	-5.2154776	-0.8293685	0.7746196
H	-4.7946590	-2.1583348	1.9789917
C	-3.2390855	-1.6580713	0.6367761
C	-2.2570051	-2.6614304	1.2012169
H	-1.3461923	-2.1751421	1.5726647
H	-2.7116891	-3.1970246	2.0369793
H	-1.9549170	-3.4048403	0.4519607
C	-2.7152916	0.8238126	-2.0934230
C	-3.6350051	0.1442047	-1.0575550
C	-1.4500439	-0.9367614	-1.0118373
C	-1.6364937	-0.2401779	-2.3900189
H	-3.2567154	1.1310272	-2.9927553
H	-2.2533289	1.7163654	-1.6574548
H	-4.5178379	-0.3175281	-1.5248439
H	-3.9939297	0.8514357	-0.2988133
H	-1.0813467	-1.9585616	-1.1375610
H	-0.7035640	0.1760601	-2.7789683
H	-2.0064465	-0.9819233	-3.1063143
C	3.3551232	1.3227626	-2.2231893
H	2.4690090	1.8920837	-1.8836925
O	3.8649320	0.4718376	-1.4856029
C	3.8552809	1.6654924	-3.5984917
H	4.1191319	2.7302905	-3.6498203
H	4.7275593	1.0586127	-3.8502934
H	3.0632077	1.4991800	-4.3406329
