31
-0.00398638 (energy)
C	-0.4210108	-0.2073459	0.1422855
O	-0.6428573	0.7897507	-0.5450525
O	0.8626691	-0.6317728	0.4371155
H	1.5243320	-0.0383923	0.0188691
N	-2.7896331	-0.5916087	0.8030646
C	-4.4856632	0.8656064	1.7115913
H	-5.2154776	0.6188330	0.9512799
H	-4.7946590	1.5741354	2.4691932
C	-3.2390855	0.3391809	1.7434565
C	-2.2570051	0.7208151	2.8295864
H	-1.3461923	1.1710629	2.4151872
H	-2.7116891	1.4508754	3.5021724
H	-1.9549170	-0.1461500	3.4315953
C	-2.7152916	-1.9185656	-1.1748161
C	-3.6350051	-1.0164475	-0.3256565
C	-1.4500439	-1.1591321	0.7468262
C	-1.6364937	-2.3954156	-0.1784934
H	-3.2567154	-2.7508878	-1.6335309
H	-2.2533289	-1.3342306	-1.9781040
H	-4.5178379	-1.5568163	0.0479178
H	-3.9939297	-0.1464234	-0.8903888
H	-1.0813467	-1.4603796	1.7312712
H	-0.7035640	-2.7061770	-0.6559482
H	-2.0064465	-3.2296316	0.4275998
C	4.5607211	-1.7166714	1.2921961
H	4.7056088	-0.9637223	2.0901047
O	3.9426634	-1.4188784	0.2639276
C	5.1573641	-3.0691470	1.5640505
H	4.7322766	-3.4912649	2.4844656
H	4.9675769	-3.7457371	0.7281178
H	6.2394754	-2.9785707	1.7272818
