31
-0.00419137 (energy)
C	-0.3127573	-0.1872845	-0.3280166
O	-0.9205172	0.2224391	0.6612283
O	1.0640621	-0.1023913	-0.4378272
H	1.4457877	0.3247201	0.3601012
N	-2.2809296	-1.2628342	-1.4069742
C	-3.9570035	-2.7927980	-0.5851459
H	-4.7877561	-2.1780616	-0.9069361
H	-4.2046384	-3.7250140	-0.0941238
C	-2.6615222	-2.4446473	-0.7657404
C	-1.5380005	-3.3418959	-0.2940958
H	-0.8896753	-2.8352630	0.4318708
H	-1.9495454	-4.2292164	0.1910746
H	-0.9058035	-3.6783193	-1.1262296
C	-2.4375549	0.9060956	-2.3814307
C	-3.2776481	-0.2862725	-1.8781775
C	-0.9120942	-0.8019257	-1.5902714
C	-1.0579435	0.2863515	-2.6919780
H	-2.8835284	1.3904603	-3.2548251
H	-2.3423794	1.6588575	-1.5912286
H	-3.8905641	-0.7298666	-2.6772445
H	-3.9541599	0.0014451	-1.0631671
H	-0.2414769	-1.6013070	-1.9175047
H	-0.2380511	1.0091821	-2.6783479
H	-1.0633882	-0.2082216	-3.6694739
C	3.7389361	2.7165290	-0.7066940
H	3.6190107	2.3331291	-1.7378125
O	3.7330675	1.9338820	0.2500930
C	3.9016052	4.2058388	-0.5859757
H	3.0314848	4.7170340	-1.0191233
H	4.0132058	4.4945678	0.4612863
H	4.7798521	4.5371562	-1.1558217
