31
-0.00437367 (energy)
C	-0.4203229	0.0673768	0.2434679
O	0.4797977	-0.2546311	1.0193190
O	-0.2103433	0.2029935	-1.1175661
H	0.7282760	0.0172812	-1.3396766
N	-2.2569117	-0.0630012	1.9181624
C	-2.8964674	-1.7632822	3.5073217
H	-2.8943448	-1.0855240	4.3512642
H	-3.1591520	-2.7930240	3.7124585
C	-2.5873640	-1.3804996	2.2463587
C	-2.6044332	-2.3709993	1.1024953
H	-1.6234691	-2.4495385	0.6171390
H	-2.8715752	-3.3625878	1.4732847
H	-3.3353841	-2.0938293	0.3316593
C	-1.6462648	2.2248640	2.1848771
C	-2.1672834	0.9879723	2.9460606
C	-1.8657313	0.4078963	0.5971861
C	-2.0332886	1.9497283	0.7157403
H	-2.0759879	3.1573160	2.5619586
H	-0.5570890	2.2935808	2.2802843
H	-3.1573414	1.1617899	3.3938579
H	-1.4877777	0.6844981	3.7528238
H	-2.5021730	0.0058761	-0.1959984
H	-1.4230653	2.4946873	-0.0092015
H	-3.0847391	2.1991858	0.5358700
C	3.1916879	2.7966210	-1.1134079
H	3.9496943	3.1657101	-0.3966218
O	3.0484288	1.5820678	-1.2932672
C	2.3922870	3.8599022	-1.8130288
H	3.0609079	4.5299223	-2.3698645
H	1.6718243	3.4079142	-2.4980231
H	1.8632128	4.4799960	-1.0772453
