31
-0.00249558 (energy)
C	4.2160344	-0.9498829	1.4637919
O	3.5707149	-1.7121546	2.1837611
O	5.5390673	-1.1864496	1.1343727
H	5.8549932	-2.0143232	1.5582177
N	2.2897041	0.4945881	0.8333843
C	0.0814897	-0.0059690	-0.0024662
H	-0.4234709	0.5692227	0.7628892
H	-0.5468129	-0.4981506	-0.7335241
C	1.4275344	-0.1304899	-0.0714110
C	2.0818512	-0.9493014	-1.1628421
H	2.6847455	-1.7685912	-0.7513660
H	1.3174471	-1.3902444	-1.8057674
H	2.7390856	-0.3381009	-1.7951216
C	3.0380751	1.6641116	2.7700074
C	1.7775027	1.2877479	1.9637384
C	3.7396762	0.3639717	0.8496709
C	4.1847438	1.5580698	1.7415348
H	2.9662836	2.6613329	3.2135328
H	3.1934341	0.9451878	3.5818821
H	1.2429249	2.1740049	1.5899403
H	1.0676351	0.7000063	2.5598418
H	4.1779504	0.4383050	-0.1494337
H	5.1675192	1.4003391	2.1933833
H	4.2339757	2.4573462	1.1178292
C	-0.9222122	-3.5650773	-3.5477119
H	-0.1000939	-4.2680899	-3.3143077
O	-0.7464839	-2.3466949	-3.4351243
C	-2.2093452	-4.2009807	-3.9926765
H	-2.5813513	-4.8833559	-3.2167754
H	-2.9613039	-3.4368945	-4.2007802
H	-2.0398034	-4.8068188	-4.8926927
