31
-0.00305741 (energy)
C	0.4784841	-0.0940998	0.0518239
O	0.2876592	1.1169197	-0.0616163
O	-0.5572254	-1.0115006	0.0277703
H	-1.4190194	-0.5526467	-0.0798985
N	2.9618656	0.0293389	-0.0588000
C	4.4732856	1.1186085	-1.5932433
H	5.0141354	1.6389365	-0.8132818
H	4.8063730	1.2858925	-2.6093738
C	3.4259673	0.2965297	-1.3495101
C	2.7037817	-0.4052152	-2.4790262
H	1.6403386	-0.1367607	-2.5114412
H	3.1467631	-0.1224086	-3.4360452
H	2.7682387	-1.4975771	-2.3901932
C	2.6655240	0.2198199	2.2979461
C	3.5539268	0.6790292	1.1229441
C	1.8130969	-0.8013588	0.2728875
C	2.0176586	-1.0857244	1.7883635
H	3.2370944	0.0703498	3.2184270
H	1.8924936	0.9693357	2.4998828
H	4.6001938	0.3599385	1.2431789
H	3.5519726	1.7704965	1.0072434
H	1.7907903	-1.7328140	-0.2995750
H	1.0842167	-1.3409713	2.2967225
H	2.7074979	-1.9303291	1.8927426
C	0.1082993	5.9955836	0.6461478
H	-0.0457985	6.3252643	-0.3989108
O	-0.3217060	6.6797195	1.5815972
C	0.8533699	4.7008069	0.8119831
H	1.8465446	4.7747496	0.3491836
H	0.9590809	4.4534263	1.8703803
H	0.3223147	3.8906698	0.2948066
