31
-0.00506905 (energy)
C	-0.4203229	-0.2445378	-0.0633839
O	0.4797977	-0.7554405	-0.7301765
O	-0.2103433	0.8663439	0.7345807
H	0.7282760	1.1515533	0.6848044
N	-2.2569117	-1.6296767	-1.0136419
C	-2.8964674	-2.1557883	-3.2807082
H	-2.8943448	-3.2255431	-3.1157237
H	-3.1591520	-1.8185711	-4.2750591
C	-2.5873640	-1.2551537	-2.3187272
C	-2.6044332	0.2307109	-2.6045932
H	-1.6234691	0.6903114	-2.4299320
H	-2.8715752	0.4053922	-3.6487287
H	-3.3353841	0.7596894	-1.9791389
C	-1.6462648	-3.0045911	0.8343500
C	-2.1672834	-3.0453494	-0.6174215
C	-1.8657313	-0.7211265	0.0546554
C	-2.0332886	-1.5947136	1.3306440
H	-2.0759879	-3.7973793	1.4533363
H	-0.5570890	-3.1215746	0.8461569
H	-3.1573414	-3.5200621	-0.6907896
H	-1.4877777	-3.5922897	-1.2836194
H	-2.5021730	0.1668015	0.1030881
H	-1.4230653	-1.2393750	2.1650633
H	-3.0847391	-1.5636700	1.6366156
C	3.2721025	2.3939750	-1.6792051
H	3.8463726	1.8242466	-2.4343252
O	3.1198523	1.9359276	-0.5412137
C	2.7219252	3.7126111	-2.1456618
H	2.0574443	3.5611145	-3.0068010
H	2.1724446	4.2040892	-1.3399962
H	3.5384034	4.3632388	-2.4860444
