31
-0.00271622 (energy)
C	-1.0984539	-1.8846817	1.1612311
O	-2.0770812	-1.3702236	1.7029621
O	-0.4711034	-3.0049023	1.6774036
H	-0.9121903	-3.2932893	2.5063208
N	-1.1797489	-0.4821187	-0.8932436
C	-2.9653428	0.0708691	-2.4200944
H	-2.8078047	1.1387718	-2.3403120
H	-3.7605885	-0.2545936	-3.0782059
C	-2.2289631	-0.8412753	-1.7434611
C	-2.4933365	-2.3239018	-1.8908719
H	-2.7498472	-2.7892490	-0.9308281
H	-3.3305922	-2.4862863	-2.5725840
H	-1.6233204	-2.8566627	-2.2965051
C	0.2529147	0.8704142	0.4470860
C	-0.8461903	0.9288459	-0.6342632
C	-0.3813370	-1.4036472	-0.0975877
C	0.8543324	-0.5431668	0.2923755
H	1.0014398	1.6582053	0.3229304
H	-0.1921459	0.9829333	1.4417663
H	-0.4937904	1.4082518	-1.5599706
H	-1.7314755	1.4802099	-0.2922700
H	-0.0776746	-2.2895074	-0.6622651
H	1.3530550	-0.9098768	1.1933155
H	1.5727474	-0.5733173	-0.5341239
C	4.5431270	1.5096647	0.6772288
H	4.3493452	1.2403927	1.7329390
O	3.8530634	1.0200268	-0.2239255
C	5.6695271	2.4794639	0.4540913
H	6.6053865	2.0705480	0.8578260
H	5.7893273	2.6876850	-0.6112108
H	5.4740878	3.4157555	0.9935122
