31
-0.00287935 (energy)
C	-1.0984539	-1.8846817	1.1612311
O	-2.0770812	-1.3702236	1.7029621
O	-0.4711034	-3.0049023	1.6774036
H	-0.9121903	-3.2932893	2.5063208
N	-1.1797489	-0.4821187	-0.8932436
C	-2.9653428	0.0708691	-2.4200944
H	-2.8078047	1.1387718	-2.3403120
H	-3.7605885	-0.2545936	-3.0782059
C	-2.2289631	-0.8412753	-1.7434611
C	-2.4933365	-2.3239018	-1.8908719
H	-2.7498472	-2.7892490	-0.9308281
H	-3.3305922	-2.4862863	-2.5725840
H	-1.6233204	-2.8566627	-2.2965051
C	0.2529147	0.8704142	0.4470860
C	-0.8461903	0.9288459	-0.6342632
C	-0.3813370	-1.4036472	-0.0975877
C	0.8543324	-0.5431668	0.2923755
H	1.0014398	1.6582053	0.3229304
H	-0.1921459	0.9829333	1.4417663
H	-0.4937904	1.4082518	-1.5599706
H	-1.7314755	1.4802099	-0.2922700
H	-0.0776746	-2.2895074	-0.6622651
H	1.3530550	-0.9098768	1.1933155
H	1.5727474	-0.5733173	-0.5341239
C	3.8110965	0.9401867	-3.4694356
H	4.9159357	0.9994759	-3.4494847
O	3.1839312	0.7103840	-2.4293075
C	3.1767274	1.1550070	-4.8149861
H	3.5508508	0.4118437	-5.5317754
H	2.0897639	1.0794867	-4.7416122
H	3.4523899	2.1421687	-5.2091120
