31
-0.00295324 (energy)
C	-1.8200140	1.1104282	-1.2496329
O	-1.3983640	1.1625056	-2.4052065
O	-2.7092469	2.0423996	-0.7440727
H	-2.9237788	2.7163010	-1.4257335
N	-0.8251958	-1.1079095	-0.7167416
C	-0.8600543	-3.2291449	-1.8676368
H	0.2166470	-3.3397894	-1.8591664
H	-1.4263397	-4.0270993	-2.3302836
C	-1.5011122	-2.1597348	-1.3408524
C	-3.0101487	-2.0550322	-1.3814810
H	-3.3418296	-1.1597408	-1.9222868
H	-3.4296043	-2.9248823	-1.8909074
H	-3.4451356	-2.0150919	-0.3742612
C	0.9645424	0.3013776	-0.0173841
C	0.6454331	-1.0713261	-0.6455687
C	-1.4442290	0.0933927	-0.1750631
C	-0.3284360	0.6757145	0.7388756
H	1.8373267	0.2652582	0.6408423
H	1.1664850	1.0367642	-0.8038661
H	1.0132715	-1.9060147	-0.0299879
H	1.0849276	-1.1787703	-1.6455647
H	-2.3472124	-0.1247008	0.4018910
H	-0.4434164	1.7494363	0.9085650
H	-0.3742656	0.1680449	1.7085672
C	4.7433166	-1.0769601	-1.4310424
H	4.8434711	-0.1093565	-1.9585795
O	3.8863992	-1.2173647	-0.5512747
C	5.7009463	-2.1512927	-1.8644393
H	6.7363392	-1.8140115	-1.7221370
H	5.5315660	-3.0671286	-1.2942361
H	5.5788455	-2.3559460	-2.9363636
