31
-0.00250469 (energy)
C	2.7651366	1.6746906	-0.4267849
O	3.4833821	0.6822393	-0.3042496
O	2.9642092	2.6131826	-1.4240309
H	3.7379706	2.3669987	-1.9767652
N	1.0940107	0.9910168	1.2862788
C	-0.1250391	-1.0606348	1.6469137
H	0.1818967	-1.1526269	2.6808032
H	-0.7760918	-1.8354193	1.2631275
C	0.2684788	-0.0455289	0.8426757
C	-0.1897004	0.0334125	-0.5973398
H	0.6570343	0.0242843	-1.2951842
H	-0.8235083	-0.8237241	-0.8333521
H	-0.7715269	0.9437078	-0.7926365
C	2.5905289	2.2249450	2.6705505
C	1.6389433	1.0104547	2.6544250
C	1.5961667	2.0837844	0.4656429
C	2.0738136	3.1195787	1.5231684
H	2.5902713	2.7413073	3.6347543
H	3.6162771	1.9014537	2.4624103
H	0.8213011	1.1130451	3.3837303
H	2.1643701	0.0726243	2.8759929
H	0.8238801	2.5121140	-0.1792811
H	2.8269740	3.8058687	1.1273792
H	1.2088277	3.7087380	1.8469292
C	6.5586913	-2.7086531	1.2922979
H	7.3808095	-2.5592808	0.5667688
O	6.7344198	-3.4153481	2.2911541
C	5.2715582	-2.0053508	0.9640718
H	4.8995520	-2.3361133	-0.0148330
H	4.5195997	-2.2071708	1.7298418
H	5.4411000	-0.9229949	0.8894087
