31
-0.00656032 (energy)
C	-0.4784841	0.0673768	-0.0836711
O	-0.2876592	-0.2546312	1.0892516
O	0.5572253	0.2029936	-0.9913114
H	1.4190193	0.0172814	-0.5581250
N	-2.9618656	-0.0630014	0.0186828
C	-4.4732856	-1.7632826	0.8249508
H	-5.0141354	-1.0855245	1.4728128
H	-4.8063729	-2.7930244	0.8132443
C	-3.4259672	-1.3804998	0.0576850
C	-2.7037818	-2.3709994	-0.8295372
H	-1.6403386	-2.4495385	-0.5707901
H	-3.1467632	-3.3625879	-0.7172117
H	-2.7682388	-2.0938293	-1.8898780
C	-2.6655240	2.2248638	0.6155146
C	-3.5539268	0.9879719	0.8637105
C	-1.8130970	0.4078962	-0.7417978
C	-2.0176586	1.9497282	-0.7586836
H	-3.2370944	3.1573157	0.6281551
H	-1.8924936	2.2935806	1.3887094
H	-4.6001938	1.1617896	0.5703462
H	-3.5519725	0.6844977	1.9185049
H	-1.7907904	0.0058761	-1.7585092
H	-1.0842168	2.4946873	-0.9217773
H	-2.7074980	2.1991857	-1.5723316
C	4.2621932	-1.1528397	1.2928683
H	3.7930525	-2.1049823	0.9799555
O	3.8257581	-0.0775830	0.8670049
C	5.4232162	-1.2846659	2.2382388
H	6.2130557	-1.8970915	1.7831176
H	5.8225257	-0.3006413	2.4928450
H	5.1079457	-1.8031752	3.1534251
