31
-0.00244093 (energy)
C	2.4537830	1.5396429	1.4970514
O	2.1216266	2.6498547	1.0811752
O	2.8253683	1.3232912	2.8123510
H	2.7882700	2.1625259	3.3214062
N	1.8472430	0.3011507	-0.5748813
C	-0.1448612	0.2799333	-1.9374102
H	0.3872999	0.4898594	-2.8562873
H	-1.2176602	0.1591093	-2.0145872
C	0.4649820	0.1716015	-0.7338942
C	-0.3284465	-0.1217027	0.5207963
H	-0.2141008	0.6720021	1.2697874
H	-1.3903993	-0.1997107	0.2794075
H	-0.0212042	-1.0664279	0.9881259
C	4.1203555	0.8115215	-1.0757155
C	2.7267123	0.6248365	-1.7110654
C	2.5625509	0.2471836	0.6920706
C	4.0361421	0.0215932	0.2482072
H	4.9250109	0.4538862	-1.7245189
H	4.3004837	1.8723281	-0.8698722
H	2.7106325	-0.1950410	-2.4448858
H	2.3819947	1.5330755	-2.2219110
H	2.2183946	-0.5695236	1.3326684
H	4.7560581	0.3496198	1.0025367
H	4.1857111	-1.0495392	0.0737513
C	3.8615772	-3.7059806	2.9214965
H	3.9465884	-4.4069980	2.0694809
O	3.7043628	-2.4972066	2.7161642
C	3.9510228	-4.3322735	4.2848873
H	4.9085093	-4.8583700	4.3966411
H	3.8575984	-3.5709265	5.0621899
H	3.1601535	-5.0841171	4.4076492
