31
-0.00146878 (energy)
C	-4.4624227	-0.9153265	-0.2624328
O	-4.1022647	-1.3247460	-1.3662955
O	-5.5929990	-1.3982652	0.3727556
H	-6.0348358	-2.0769471	-0.1831217
N	-2.4366523	0.4647609	0.1691589
C	-0.0757318	-0.0159342	0.0263265
H	0.1370090	0.8296189	-0.6150634
H	0.7647160	-0.6398936	0.3015983
C	-1.3170196	-0.3125612	0.4772280
C	-1.5585849	-1.5093120	1.3712292
H	-2.2658533	-2.2174719	0.9214395
H	-0.6203866	-2.0408769	1.5424605
H	-1.9599310	-1.2150640	2.3498200
C	-3.8022550	2.0986294	-0.9004001
C	-2.3419442	1.6332923	-0.7223107
C	-3.8047507	0.1776416	0.5761159
C	-4.5280129	1.5343033	0.3400278
H	-3.8864876	3.1866553	-0.9740465
H	-4.2259221	1.6658200	-1.8132585
H	-1.7117589	2.4084987	-0.2609309
H	-1.8787662	1.3556185	-1.6778497
H	-3.8748799	-0.1248824	1.6246296
H	-5.6060609	1.4163433	0.2029464
H	-4.3609559	2.1731325	1.2141672
C	2.7216763	2.7554799	1.0274434
H	1.6168371	2.7431133	1.0887646
O	3.3488416	3.7711587	1.3484925
C	3.3560454	1.4827888	0.5407082
H	2.9819223	1.2336126	-0.4612848
H	4.4430090	1.5840926	0.5119929
H	3.0803829	0.6478849	1.1985524
