31
-0.00493964 (energy)
C	-0.4210108	-0.0195499	-0.2507095
O	-0.6428573	0.0771540	0.9564705
O	0.8626691	-0.0626668	-0.7656890
H	1.5243320	0.0028550	-0.0426832
N	-2.7896331	-0.3996700	-0.9138804
C	-4.4856632	-1.9150847	-0.1061584
H	-5.2154776	-1.1332491	0.0602852
H	-4.7946590	-2.9254518	0.1286447
C	-3.2390855	-1.6794681	-0.5779889
C	-2.2570051	-2.8109013	-0.7905489
H	-1.3461923	-2.6771449	-0.1934233
H	-2.7116891	-3.7584080	-0.4945911
H	-1.9549170	-2.8987737	-1.8423672
C	-2.7152916	1.9767034	-1.0741186
C	-3.6350051	0.7902505	-0.7174412
C	-1.4500439	-0.0672044	-1.3772509
C	-1.6364937	1.3522875	-1.9852441
H	-3.2567154	2.7901231	-1.5655733
H	-2.2533289	2.3802036	-0.1664257
H	-4.5178379	0.7369101	-1.3722013
H	-3.9939297	0.8443110	0.3183880
H	-1.0813467	-0.7691351	-2.1303614
H	-0.7035640	1.9211562	-2.0156439
H	-2.0064465	1.2445035	-3.0107430
C	3.4295007	-2.6748498	0.1985761
H	3.1888600	-2.6564461	-0.8813944
O	3.6400458	-1.6182862	0.8046752
C	3.4738591	-4.0392500	0.8274819
H	4.2218837	-4.6641082	0.3214598
H	3.7169909	-3.9629962	1.8893901
H	2.5056492	-4.5427934	0.7057157
