31
-0.000591244 (energy)
C	1.5980485	1.7564202	0.6843340
O	2.3122014	1.1997770	1.5185912
O	1.3551930	3.1185083	0.7095188
H	1.8175845	3.5350454	1.4694658
N	1.3240413	-0.2348020	-0.7835258
C	2.9063725	-1.7909490	-1.7322351
H	2.3939013	-2.6648491	-1.3510900
H	3.8023687	-1.9684603	-2.3128665
C	2.4814481	-0.5250560	-1.5107643
C	3.2380171	0.6618380	-2.0663635
H	3.5787804	1.3362699	-1.2707180
H	4.1199629	0.3187419	-2.6109313
H	2.6240072	1.2503509	-2.7605861
C	-0.5573915	-0.5412726	0.6463833
C	0.5199707	-1.2983783	-0.1578828
C	0.8369177	1.0995880	-0.4643726
C	-0.6372227	0.8381740	-0.0425317
H	-1.5187483	-1.0629125	0.6484065
H	-0.2361457	-0.4238229	1.6871210
H	0.0823265	-1.9448405	-0.9334496
H	1.1458426	-1.9302815	0.4852923
H	0.8834843	1.7781525	-1.3206444
H	-1.0358597	1.6279386	0.5995383
H	-1.2530698	0.7875735	-0.9471324
C	2.7284445	-6.4518593	1.6448359
H	2.5701983	-6.4445351	2.7400471
O	2.6678555	-7.5149619	1.0170192
C	3.0101674	-5.1124671	1.0237570
H	3.9077658	-4.6685077	1.4746052
H	3.1523985	-5.2132865	-0.0542886
H	2.1803858	-4.4215668	1.2235885
