31
-0.00144626 (energy)
C	-0.8403361	-0.9498833	-4.3830888
O	0.1058353	-1.7121551	-4.1842102
O	-1.7871379	-1.1864502	-5.3641593
H	-1.5780403	-2.0143238	-5.8496816
N	-0.4231200	0.4945879	-2.3996342
C	-0.0428807	-0.0059690	-0.0693390
H	0.8724169	0.5692227	-0.0147081
H	-0.3618441	-0.4981505	0.8403160
C	-0.7756109	-0.1304900	-1.2005756
C	-2.0479763	-0.9493015	-1.2215150
H	-1.9930747	-1.7685914	-1.9493747
H	-2.2225640	-1.3902444	-0.2380589
H	-2.9241637	-0.3381010	-1.4745570
C	0.8798594	1.6641112	-4.0160541
C	0.8118960	1.2877477	-2.5212318
C	-1.1340014	0.3639713	-3.6634901
C	-0.5841584	1.5580693	-4.4948620
H	1.2998594	2.6613325	-4.1756436
H	1.5052840	0.9451873	-4.5565361
H	0.7554663	2.1740047	-1.8713749
H	1.6830705	0.7000061	-2.2045201
H	-2.2183884	0.4383046	-3.5434944
H	-0.6842338	1.4003385	-5.5718947
H	-1.1489192	2.4573457	-4.2256455
C	2.9890411	-3.0745654	1.9056155
H	3.4627795	-3.7919066	1.2087823
O	2.3672123	-3.4866796	2.8912640
C	3.1647989	-1.6231329	1.5570027
H	2.7518788	-1.4217213	0.5595173
H	2.6676548	-0.9898458	2.2948184
H	4.2328710	-1.3716797	1.5144982
