31
-0.00182933 (energy)
C	-2.4537829	-1.7416643	-1.2562918
O	-2.1216265	-1.5248926	-2.4218532
O	-2.8253682	-2.9994124	-0.8148274
H	-2.7882699	-3.6464656	-1.5529156
N	-1.8472430	0.5138531	-0.3964028
C	0.1448612	1.8593665	-0.6121086
H	-0.3872999	2.7278305	-0.9784070
H	1.2176602	1.9563520	-0.5065218
C	-0.4649820	0.6929464	-0.2964340
C	0.3284465	-0.4917507	0.2102892
H	0.2141009	-1.3671885	-0.4412963
H	1.3903993	-0.2404832	0.2451954
H	0.0212042	-0.7879306	1.2218129
C	-4.1203555	0.9184535	-0.9859891
C	-2.7267123	1.5765686	-0.9124676
C	-2.5625509	-0.7244795	-0.1232515
C	-4.0361421	-0.2481860	0.0218354
H	-4.9250109	1.6195029	-0.7464507
H	-4.3004836	0.5315301	-1.9949353
H	-2.7106325	2.4416109	-0.2324727
H	-2.3819946	1.9219390	-1.8956159
H	-2.2183946	-1.2135253	0.7922868
H	-4.7560581	-1.0480169	-0.1702197
H	-4.1857112	0.1096199	1.0464009
C	3.5507756	2.5780563	1.1233337
H	3.7597008	2.9552477	0.1041870
O	3.5411361	1.3618473	1.3441388
C	3.2925597	3.6329500	2.1623726
H	2.4346066	4.2516734	1.8671699
H	3.0968033	3.1732604	3.1334245
H	4.1567674	4.3059454	2.2400604
