31
-0.00493307 (energy)
C	-0.4784841	-0.1061497	-0.0165145
O	-0.2876592	1.0706352	-0.3241088
O	0.5572253	-0.9599976	0.3198581
H	1.4190193	-0.4919911	0.2640964
N	-2.9618656	0.0476805	0.0452194
C	-4.4732856	1.5960698	1.1145720
H	-5.0141354	1.8182556	0.2036853
H	-4.8063729	2.1008026	2.0122078
C	-3.4259672	0.7402067	1.1667054
C	-2.7037818	0.4670996	2.4681143
H	-1.6403386	0.7304507	2.4067576
H	-3.1467632	1.0601707	3.2706923
H	-2.7682388	-0.5897675	2.7582484
C	-2.6655240	-0.5793808	-2.2345458
C	-3.5539268	0.2540092	-1.2874641
C	-1.8130970	-0.8463639	0.0176505
C	-2.0176586	-1.6319035	-1.3091723
H	-3.2370944	-1.0346598	-3.0483931
H	-1.8924936	0.0558671	-2.6806538
H	-4.6001938	-0.0869606	-1.2913124
H	-3.5519725	1.3192250	-1.5520449
H	-1.7907904	-1.5258517	0.8741658
H	-1.0842168	-2.0456263	-1.6995738
H	-2.7074980	-2.4612721	-1.1183847
C	4.4198097	-1.0423241	2.0371643
H	4.1931163	-0.1190805	2.6035688
O	4.0762024	-1.1436879	0.8540871
C	5.1492083	-2.1087794	2.8051024
H	4.5638472	-2.4077529	3.6848831
H	5.3306070	-2.9796389	2.1716397
H	6.1052370	-1.7182696	3.1783645
