31
-0.0059669 (energy)
C	-0.4784841	-0.1061498	-0.0165144
O	-0.2876593	1.0706351	-0.3241088
O	0.5572254	-0.9599976	0.3198581
H	1.4190194	-0.4919910	0.2640964
N	-2.9618656	0.0476802	0.0452195
C	-4.4732856	1.5960693	1.1145722
H	-5.0141355	1.8182551	0.2036855
H	-4.8063730	2.1008021	2.0122081
C	-3.4259673	0.7402064	1.1667056
C	-2.7037817	0.4670993	2.4681144
H	-1.6403385	0.7304506	2.4067577
H	-3.1467631	1.0601704	3.2706925
H	-2.7682386	-0.5897678	2.7582486
C	-2.6655241	-0.5793811	-2.2345457
C	-3.5539268	0.2540089	-1.2874639
C	-1.8130969	-0.8463640	0.0176506
C	-2.0176585	-1.6319037	-1.3091721
H	-3.2370945	-1.0346601	-3.0483929
H	-1.8924937	0.0558670	-2.6806537
H	-4.6001938	-0.0869610	-1.2913121
H	-3.5519727	1.3192247	-1.5520447
H	-1.7907902	-1.5258518	0.8741659
H	-1.0842167	-2.0456264	-1.6995737
H	-2.7074978	-2.4612723	-1.1183845
C	4.3547535	0.4715333	1.8190802
H	3.5749449	1.1258449	2.2530822
O	4.1477678	-0.1145274	0.7505757
C	5.6267723	0.3681719	2.6130340
H	5.4130058	-0.0124689	3.6207361
H	6.3365725	-0.2944056	2.1132825
H	6.0754150	1.3625531	2.7384892
