31
-0.00573235 (energy)
C	-0.4784841	0.1053964	-0.0207869
O	-0.2876593	-0.8952163	0.6707414
O	0.5572254	0.7927048	-0.6289067
H	1.4190194	0.3719941	-0.4164402
N	-2.9618656	-0.0602707	-0.0261849
C	-4.4732856	-1.8810207	-0.5014676
H	-5.0141355	-1.7782655	0.4304780
H	-4.8063730	-2.6623239	-1.1723406
C	-3.4259673	-1.0946032	-0.8431792
C	-2.7037817	-1.2830745	-2.1595116
H	-1.6403385	-1.5095585	-2.0117837
H	-3.1467631	-2.1148768	-2.7108461
H	-2.7682386	-0.3891760	-2.7936183
C	-2.6655241	1.3086996	1.9016262
C	-3.5539268	0.2016482	1.2966965
C	-1.8130969	0.7892852	-0.3060596
C	-2.0176585	1.9812511	0.6720756
H	-3.2370945	2.0148741	2.5106779
H	-1.8924937	0.8643396	2.5380981
H	-4.6001938	0.5233713	1.1836941
H	-3.5519727	-0.7088352	1.9096463
H	-1.7907902	1.1348494	-1.3433193
H	-1.0842167	2.5035484	0.8974316
H	-2.7074978	2.6953495	0.2091331
C	4.0291645	-2.4327567	-1.0816086
H	4.6002359	-2.6928343	-0.1701153
O	3.5129258	-1.3149878	-1.1916198
C	3.9449594	-3.5143466	-2.1218734
H	3.4777731	-4.4123239	-1.6959384
H	3.3662795	-3.1726424	-2.9826547
H	4.9528174	-3.8052000	-2.4465885
