31
-0.0048224 (energy)
C	-0.4782452	0.0923941	0.0568542
O	0.1022348	0.1444535	1.1413743
O	0.1845721	-0.1930328	-1.1238666
H	1.1425520	-0.3291326	-0.9548114
N	-2.7768534	0.2932752	0.9899703
C	-3.9213636	-0.8685343	2.7692144
H	-4.2080144	0.0398363	3.2833097
H	-4.2383673	-1.8009736	3.2181220
C	-3.1996267	-0.8779437	1.6241806
C	-2.8244422	-2.1783363	0.9474087
H	-1.7366358	-2.2933784	0.8609661
H	-3.2022910	-3.0222049	1.5281094
H	-3.2476700	-2.2511286	-0.0629774
C	-2.2942549	2.6003178	0.6392474
C	-3.0441924	1.6217118	1.5669792
C	-1.9574636	0.3569799	-0.2118146
C	-2.1554640	1.8243302	-0.6883181
H	-2.8270320	3.5474596	0.5151911
H	-1.3033957	2.8229631	1.0500459
H	-4.1276982	1.8131514	1.5847465
H	-2.6815951	1.6753151	2.6015522
H	-2.2842381	-0.3501696	-0.9792635
H	-1.3340969	2.1748149	-1.3187228
H	-3.0819849	1.8779379	-1.2703967
C	3.0336644	-1.3313579	2.1509060
H	2.6564491	-0.2919758	2.1953616
O	3.9505362	-1.6252526	1.3756742
C	2.3585962	-2.3038580	3.0769754
H	1.2821617	-2.3438396	2.8631130
H	2.7919490	-3.3001987	2.9670332
H	2.4626967	-1.9688146	4.1175148
