31
-0.00470222 (energy)
C	-0.4784841	-0.0346963	0.1016694
O	-0.2876593	-0.1332710	-1.1106507
O	0.5572254	0.1482969	1.0009558
H	1.4190194	0.1746508	0.5303764
N	-2.9618656	0.0528121	-0.0391035
C	-4.4732856	1.3747940	-1.3782780
H	-5.0141355	0.5163278	-1.7552621
H	-4.8063730	2.3464386	-1.7194699
C	-3.4259673	1.2775162	-0.5263646
C	-2.7037817	2.5117292	-0.0314194
H	-1.6403385	2.4970350	-0.3014243
H	-3.1467631	3.4051000	-0.4761141
H	-2.7682386	2.6139325	1.0597728
C	-2.6655241	-2.3012064	0.1825541
C	-3.5539268	-1.2237962	-0.4737157
C	-1.8130969	-0.1295871	0.8365709
C	-2.0176585	-1.5726600	1.3797760
H	-3.2370945	-3.1817479	0.4895933
H	-1.8924937	-2.6302273	-0.5205089
H	-4.6001938	-1.2867948	-0.1385942
H	-3.5519727	-1.2993847	-1.5686925
H	-1.7907902	0.5959239	1.6544680
H	-1.0842167	-2.0289727	1.7194208
H	-2.7074978	-1.5287893	2.2296746
C	4.5131587	-0.6046362	2.2618955
H	4.8388849	0.4495227	2.3469500
O	3.8559686	-0.9730566	1.2819058
C	4.9253727	-1.5017001	3.3952242
H	4.5270733	-1.1184494	4.3441832
H	4.5632897	-2.5184945	3.2290859
H	6.0192327	-1.5104583	3.4911768
