31
-0.00434461 (energy)
C	-0.3623688	-0.1487756	-0.2283585
O	0.6414063	-0.5848625	-0.7881342
O	-0.2926687	0.6432123	0.8857242
H	-1.2200539	0.8453918	1.1702021
N	-2.8127520	0.0910299	0.1923892
C	-2.7364528	-1.9458232	1.5270915
H	-1.8507860	-2.3359696	1.0419344
H	-3.1390791	-2.5405464	2.3371166
C	-3.3180616	-0.7725017	1.2012856
C	-4.5262857	-0.2545082	1.9491551
H	-5.3925684	-0.1201463	1.2898702
H	-4.8091663	-0.9574325	2.7351781
H	-4.3213696	0.7153933	2.4206028
C	-2.7826214	1.6646471	-1.5808720
C	-3.6705072	1.1283020	-0.4484521
C	-1.7843293	-0.3978066	-0.7580380
C	-2.0433561	0.4009743	-2.0656660
H	-3.3652420	2.1457652	-2.3713162
H	-2.0696000	2.4002784	-1.1896829
H	-4.5921667	0.6854080	-0.8564997
H	-3.9542001	1.8992965	0.2726746
H	-1.8827952	-1.4745301	-0.9349941
H	-1.1150255	0.6084720	-2.6024642
H	-2.6911750	-0.1866810	-2.7259753
C	4.1588492	1.8853308	-1.9061457
H	3.4753498	1.8172404	-2.7737718
O	5.0802886	2.7093219	-1.9062827
C	3.8744583	0.9279736	-0.7829061
H	3.9213163	-0.1067898	-1.1477568
H	4.5939687	1.0645097	0.0271799
H	2.8562614	1.0840178	-0.4024609
