31
-0.00421714 (energy)
C	0.0292794	0.3153203	0.3245131
O	1.1006222	-0.2861517	0.2852540
O	-1.0122734	0.0092588	-0.5090199
H	-1.7507831	0.6400268	-0.3125955
N	-1.5579554	2.0943238	1.0693252
C	-0.5701089	3.5991042	-0.5725693
H	0.3754134	3.0736559	-0.6160309
H	-0.6761307	4.4481514	-1.2357603
C	-1.5998264	3.2314457	0.2183863
C	-2.9162706	3.9757864	0.1993256
H	-3.1647046	4.3987829	1.1804015
H	-2.8708754	4.7974535	-0.5181411
H	-3.7453814	3.3179824	-0.0919326
C	-1.9552586	0.7042928	2.9485799
C	-2.4872948	1.9505990	2.2260562
C	-0.2655697	1.4227560	1.3497929
C	-0.4279493	0.8346783	2.7790704
H	-2.2651351	0.6694232	3.9966658
H	-2.3198612	-0.2055479	2.4568110
H	-2.4392643	2.8303075	2.8862988
H	-3.5196441	1.8376256	1.8848381
H	0.5693642	2.1312455	1.3141490
H	0.1130332	-0.1074759	2.8917145
H	-0.0251950	1.5448659	3.5101238
C	4.3445433	1.7949714	2.1022529
H	4.1862971	2.7397900	1.5483045
O	4.2839543	1.7828175	3.3368352
C	4.6262662	0.5874053	1.2528447
H	5.5238646	0.7558716	0.6429405
H	4.7684973	-0.2958000	1.8791796
H	3.7964847	0.4150142	0.5545917
