31
-0.00425615 (energy)
C	-1.5366215	1.7257618	1.2116362
O	-1.2851544	2.8614422	1.6092285
O	-2.7409561	1.3972647	0.6504314
H	-2.7196626	0.4301014	0.4359805
N	-1.1178739	-0.7130212	0.8711940
C	-1.9543210	-1.1242022	3.1222622
H	-1.7393695	-0.1252857	3.4799756
H	-2.4355191	-1.7909354	3.8264351
C	-1.6910420	-1.5474766	1.8682189
C	-2.0601454	-2.9408637	1.4103253
H	-1.1824105	-3.5152699	1.0897099
H	-2.5391426	-3.4875457	2.2249766
H	-2.7591934	-2.9136242	0.5644221
C	0.1767265	-0.0479800	-1.0005337
C	-0.4426096	-1.2827264	-0.3295597
C	-0.5066848	0.5845406	1.2489606
C	0.6189520	0.8108045	0.2016864
H	1.0057201	-0.3093532	-1.6639922
H	-0.5782224	0.4817991	-1.5938026
H	0.3411448	-2.0004107	-0.0418576
H	-1.1600242	-1.8016884	-0.9705999
H	-0.0926593	0.5515744	2.2627843
H	0.7454598	1.8701529	-0.0323696
H	1.5676594	0.4382833	0.6044255
C	3.8398709	-2.8428103	-0.6917145
H	4.5929767	-2.4561448	-1.4043886
O	3.1389492	-2.0572634	-0.0439206
C	3.7543808	-4.3400256	-0.5911361
H	4.7252746	-4.7541304	-0.2879375
H	2.9891822	-4.6315645	0.1313962
H	3.5185174	-4.7715551	-1.5729528
