31
-0.00412931 (energy)
C	-0.3623688	-0.1233765	0.2430226
O	0.6414063	-0.3901130	0.9005729
O	-0.2926687	0.4454535	-0.9999003
H	-1.2200539	0.5907289	-1.3172318
N	-2.8127520	0.1210990	-0.1750288
C	-2.7364528	2.2954116	0.9215866
H	-1.8507860	2.0703264	1.5020419
H	-3.1390791	3.2942755	1.0316195
C	-3.3180616	1.4265947	0.0683633
C	-4.5262857	1.8152720	-0.7541670
H	-5.3925684	1.1771336	-0.5408853
H	-4.8091663	2.8474500	-0.5384280
H	-4.3213696	1.7386070	-1.8298501
C	-2.7826214	-2.2013988	-0.6511908
C	-3.6705072	-0.9525219	-0.7529122
C	-1.7843293	-0.4575769	0.7235296
C	-2.0433561	-1.9894064	0.6855790
H	-3.3652420	-3.1265026	-0.6726292
H	-2.0696000	-2.2304348	-1.4838607
H	-4.5921667	-1.0844545	-0.1653309
H	-3.9542001	-0.7135051	-1.7811764
H	-1.8827952	-0.0724637	1.7444775
H	-1.1150255	-2.5580362	0.7742799
H	-2.6911750	-2.2674234	1.5246581
C	4.5660314	0.6659524	2.9634348
H	4.7242776	-0.2861903	3.5046975
O	4.6266205	1.7412090	3.5702002
C	4.2843083	0.5341263	1.4929477
H	3.3867099	-0.0782993	1.3338918
H	4.1420772	1.5181509	1.0412370
H	5.1140898	0.0156170	0.9945261
