31
-0.0042697 (energy)
C	3.0202543	1.4761815	0.9080765
O	3.2386269	2.1084025	1.9394325
O	2.9858264	2.0738611	-0.3227269
H	2.7672089	1.3754988	-0.9908167
N	2.4117022	-0.5321869	-0.4465579
C	0.0609174	-0.0362340	-0.0417574
H	0.2442413	0.5249708	0.8656779
H	-0.9695742	-0.0935392	-0.3684796
C	1.0324391	-0.6157978	-0.7775244
C	0.7202171	-1.3454830	-2.0649669
H	1.0236237	-2.3988348	-2.0256005
H	-0.3530719	-1.3130227	-2.2623325
H	1.2352515	-0.8892148	-2.9202570
C	4.6886652	-1.1537284	-0.2212579
C	3.4039938	-1.5053483	-0.9856955
C	2.8269371	-0.0492523	0.8929497
C	4.1640396	-0.7866702	1.1817545
H	5.4010244	-1.9831897	-0.2050798
H	5.1830816	-0.2912131	-0.6840773
H	3.0995760	-2.5420007	-0.7740454
H	3.5084382	-1.3960330	-2.0683216
H	2.0779370	-0.2908997	1.6551491
H	4.8495050	-0.1664671	1.7635540
H	3.9584215	-1.6954267	1.7587287
C	3.8100261	-5.5141825	0.5241859
H	3.6011009	-5.5200579	-0.5625056
O	3.8196657	-4.4468396	1.1476427
C	4.0682421	-6.8608304	1.1397686
H	4.9261952	-7.3412750	0.6507529
H	4.2639985	-6.7609826	2.2094819
H	3.2040344	-7.5198101	0.9825933
