31
-0.0042172 (energy)
C	-1.2738117	-2.0549980	0.6271363
O	-1.9894962	-3.0344582	0.4282928
O	-0.9014612	-1.6645285	1.8849804
H	-0.3548275	-0.8428733	1.7959758
N	-0.0000000	-0.0000000	0.0000000
C	-2.0758984	1.2693295	0.1243805
H	-2.7139919	0.4116938	-0.0467777
H	-2.5787015	2.2115591	0.3014019
C	-0.7282828	1.2092266	0.1620851
C	0.1097520	2.4335709	0.4555300
H	0.7936784	2.6718875	-0.3682451
H	-0.5360930	3.2990779	0.6159607
H	0.7204113	2.2955820	1.3572042
C	1.7372419	-1.4849020	-0.6314198
C	1.4392016	0.0019126	-0.3886517
C	-0.6794206	-1.2138496	-0.5146680
C	0.4301416	-1.9976044	-1.2694109
H	2.6100496	-1.6327957	-1.2733370
H	1.9260130	-1.9957006	0.3204373
H	1.6017255	0.5841117	-1.3088389
H	2.0558476	0.4369208	0.4022045
H	-1.5011461	-0.9555832	-1.1917264
H	0.2894281	-3.0775244	-1.1858765
H	0.3992148	-1.7342514	-2.3327571
C	5.4058835	-0.6892749	2.0564777
H	5.8962223	-1.0968166	1.1520107
O	4.2607721	-0.2290167	1.9865174
C	6.2241121	-0.7457161	3.3159992
H	7.1622187	-0.1906937	3.1820101
H	5.6650091	-0.3246710	4.1542721
H	6.4999050	-1.7845573	3.5408559
