31
-0.00433205 (energy)
C	-0.2809969	0.0772060	-2.5927980
O	-0.7510555	0.9593881	-3.3082594
O	0.8071881	-0.6644870	-2.9656626
H	0.9822612	-1.3246004	-2.2477161
N	-0.1955390	-1.4484896	-0.6169785
C	-1.7267976	-2.9525775	-1.7697962
H	-2.1440623	-2.1826729	-2.4062978
H	-2.0960301	-3.9575104	-1.9301757
C	-0.7724038	-2.7272230	-0.8427313
C	-0.1913045	-3.8529241	-0.0165641
H	-0.3525110	-3.7012919	1.0577615
H	-0.6573145	-4.8001743	-0.2949666
H	0.8907931	-3.9493286	-0.1738318
C	0.7781243	0.3831891	0.5313104
C	0.5067119	-1.1230946	0.6571160
C	-0.8282892	-0.2356807	-1.1902569
C	-0.4841417	0.9008437	-0.1878042
H	0.9381994	0.8576733	1.5034030
H	1.6693847	0.5594386	-0.0828335
H	-0.1343226	-1.3290454	1.5281919
H	1.4205764	-1.7139796	0.7602882
H	-1.9132990	-0.3562953	-1.2827134
H	-0.3446971	1.8579989	-0.6951645
H	-1.3072776	1.0141554	0.5267755
C	3.6703948	3.2096536	-1.8068359
H	4.2763805	2.6073371	-2.5100990
O	3.3172390	2.7288437	-0.7241933
C	3.3340750	4.5993547	-2.2701912
H	2.7795226	4.5577616	-3.2171804
H	2.7372188	5.1192276	-1.5178139
H	4.2545554	5.1649987	-2.4665991
