31
-0.00421265 (energy)
C	-2.3466561	0.5237609	0.6766040
O	-3.4927276	0.2662588	1.0389548
O	-1.9546423	1.7898432	0.3350722
H	-1.0058361	1.7456719	0.0528258
N	-0.0000000	-0.0000000	0.0000000
C	-0.8005999	-0.4560074	-2.2554643
H	-1.8132058	-0.6811260	-1.9457091
H	-0.6090761	-0.4840415	-3.3205825
C	0.1894785	-0.1174306	-1.4032834
C	1.5737336	0.2355931	-1.8999155
H	2.3404601	-0.4364654	-1.4954119
H	1.6089656	0.1672805	-2.9889739
H	1.8535318	1.2583792	-1.6160427
C	0.4613070	-0.0902898	2.3239359
C	1.1470840	-0.0611251	0.9501669
C	-1.2314134	-0.5339367	0.6312360
C	-0.7933301	-0.9484567	2.0634695
H	1.1079465	-0.5076245	3.1007321
H	0.1763219	0.9238286	2.6287789
H	1.7428398	-0.9740358	0.7959485
H	1.8065576	0.8010358	0.8208952
H	-1.6218309	-1.3964504	0.0798860
H	-1.5940602	-0.7958609	2.7904847
H	-0.5316235	-2.0126505	2.0676969
C	2.1680981	3.6823059	3.3201932
H	2.5019237	4.4215801	2.5674535
O	2.4325592	2.4839721	3.1716385
C	1.4004289	4.2458322	4.4830347
H	0.5025620	4.7674446	4.1255401
H	1.1122812	3.4496908	5.1727495
H	2.0096983	4.9903272	5.0124979
