31
-0.00412342 (energy)
C	2.5966591	0.7908510	-3.1045011
O	3.4201998	1.4647065	-3.7199560
O	1.4374501	0.3468277	-3.6810087
H	0.9264393	-0.1456916	-2.9895319
N	1.6028788	-0.3175695	-1.0988297
C	0.5864633	1.8095218	-0.4836840
H	1.3053228	2.4107170	-1.0257197
H	-0.2128674	2.3484609	0.0088189
C	0.6218118	0.4616293	-0.4285662
C	-0.4401385	-0.3277437	0.3039524
H	-0.0173709	-0.9336187	1.1147164
H	-1.1754967	0.3506594	0.7409579
H	-0.9702862	-1.0111937	-0.3719187
C	3.1250434	-2.0811210	-1.5398913
C	1.8966762	-1.7211535	-0.6914106
C	2.8158827	0.3311080	-1.6535958
C	3.9196665	-0.7597744	-1.5719037
H	3.6955648	-2.9099173	-1.1117260
H	2.8173328	-2.3687294	-2.5524017
H	2.1365361	-1.7817839	0.3813920
H	1.0391788	-2.3708130	-0.8852623
H	3.0992391	1.2143903	-1.0706174
H	4.6232394	-0.6851561	-2.4040231
H	4.4835613	-0.6344948	-0.6405905
C	4.5892028	-3.2878492	3.1795922
H	5.0629410	-2.5705080	3.8764254
O	3.9673741	-2.8757351	2.1939436
C	4.7649607	-4.7392818	3.5282050
H	4.3520405	-4.9406933	4.5256904
H	4.2678167	-5.3725689	2.7903894
H	5.8330328	-4.9907348	3.5707097
