31
-0.00517134 (energy)
C	0.3982957	2.2769580	-1.2101011
O	-0.0499067	3.3930346	-0.9559892
O	1.6816050	2.0860030	-1.6459180
H	1.8031397	1.1162988	-1.8094738
N	0.2963485	-0.1960053	-1.5462146
C	-0.5098544	0.1912863	-3.8125032
H	-0.9044506	1.1764264	-3.5985168
H	-0.5938688	-0.1449533	-4.8380902
C	0.0945456	-0.5929050	-2.8955265
C	0.6716236	-1.9410839	-3.2654266
H	0.2053272	-2.7578180	-2.7009194
H	0.5149091	-2.1360505	-4.3281517
H	1.7508615	-1.9834329	-3.0694307
C	0.5077502	-0.3460815	0.8105673
C	0.5508956	-1.1944080	-0.4688321
C	-0.4146733	0.9879121	-1.0051843
C	-0.6037863	0.6786751	0.5059892
H	0.2991672	-0.9477709	1.6994915
H	1.4674206	0.1622827	0.9628185
H	-0.2344265	-1.9657374	-0.4479903
H	1.5125198	-1.6923060	-0.6182117
H	-1.3835085	1.1315365	-1.4961759
H	-0.5502486	1.5850015	1.1132056
H	-1.5894140	0.2255685	0.6617101
C	2.7562748	5.3298018	0.5012422
H	2.3790595	4.5621644	-0.2009148
O	3.6731465	5.0566288	1.2840160
C	2.0812065	6.6700460	0.4169429
H	1.0047720	6.5632056	0.6064707
H	2.5145594	7.3626178	1.1415990
H	2.1853071	7.0822338	-0.5955183
