31
-0.00409003 (energy)
C	-0.4338025	0.1021837	-0.0834671
O	-0.0875315	-0.7594481	-0.8889312
O	0.4185264	0.6035411	0.8628200
H	-0.0879151	1.2576734	1.4082330
N	-2.0421865	1.6213431	1.0759158
C	-2.6886289	-0.2357966	2.5143757
H	-2.3832783	-1.0013606	1.8124711
H	-3.0677863	-0.5840957	3.4666737
C	-2.5857256	1.0884166	2.2756870
C	-2.9825665	2.1123386	3.3156545
H	-3.7832723	2.7721478	2.9597367
H	-3.3379400	1.6105967	4.2178301
H	-2.1341559	2.7502235	3.5954124
C	-1.7130340	3.0817115	-0.7627296
C	-2.3278087	3.0190164	0.6431521
C	-1.8319514	0.7420723	-0.0999288
C	-2.0059832	1.6773565	-1.3287465
H	-2.1455668	3.8828136	-1.3684310
H	-0.6315980	3.2517163	-0.6981051
H	-3.4115308	3.2082337	0.6000541
H	-1.8841745	3.7395962	1.3351719
H	-2.5636333	-0.0729823	-0.1258103
H	-1.3518565	1.3860517	-2.1535285
H	-3.0415909	1.6203300	-1.6826973
C	4.4777793	0.9717631	-1.6516968
H	3.9334590	1.5060766	-2.4534494
O	5.7130131	0.9266773	-1.6649959
C	3.6150808	0.3373350	-0.5970260
H	2.9284517	-0.3864917	-1.0560057
H	4.2324979	-0.1653651	0.1504132
H	2.9926588	1.0994602	-0.1096151
