31
-0.00393862 (energy)
C	-2.3466561	-0.7235864	-0.4566630
O	-3.4927276	-0.6055448	-0.8852323
O	-1.9546423	-1.7965039	0.2972975
H	-1.0058361	-1.6584625	0.5474149
N	-0.0000000	-0.0000000	0.0000000
C	-0.8005999	1.1999209	1.9634795
H	-1.8132058	1.3055206	1.5954098
H	-0.6090761	1.5905562	2.9547751
C	0.1894785	0.5902998	1.2784915
C	1.5737336	0.4284242	1.8659142
H	2.3404601	0.9216042	1.2559476
H	1.6089656	0.8650969	2.8659301
H	1.8535318	-0.6297706	1.9489744
C	0.4613070	-0.7099881	-2.2146664
C	1.1470840	-0.2675374	-0.9137708
C	-1.2314134	0.2858410	-0.7757849
C	-0.7933301	0.1855098	-2.2634183
H	1.1079465	-0.5835016	-3.0873529
H	0.1763219	-1.7672101	-2.1542762
H	1.7428398	0.6430639	-1.0810868
H	1.8065576	-1.0334901	-0.4974189
H	-1.6218309	1.2849115	-0.5526824
H	-1.5940602	-0.2065372	-2.8943984
H	-0.5316235	1.1840790	-2.6313665
C	5.2195058	1.0830812	-0.9759949
H	4.6589868	1.7727065	-1.6354025
O	4.6114374	0.2887590	-0.2498287
C	6.7165735	1.1982686	-1.0438051
H	7.0290793	2.2178600	-0.7814686
H	7.1861200	0.4840781	-0.3640737
H	7.0633328	1.0145664	-2.0693902
