31
-0.00386789 (energy)
C	3.0202543	0.6379446	-1.6114408
O	3.2386269	1.5438480	-2.4131500
O	2.9858264	-0.6779461	-1.9863136
H	2.7672089	-1.2146167	-1.1825484
N	2.4117022	-0.3473604	0.6016457
C	0.0609174	-0.0348311	0.0429346
H	0.2442413	0.7613661	-0.6673187
H	-0.9695742	-0.3466387	0.1561039
C	1.0324391	-0.6587799	0.7414581
C	0.7202171	-1.7999548	1.6836198
H	1.0236237	-1.5782739	2.7141329
H	-0.3530719	-1.9999586	1.6859248
H	1.2352515	-2.7214812	1.3828028
C	4.6886652	-0.0175537	1.1746217
C	3.4039938	-0.7093196	1.6536429
C	2.8269371	0.8879364	-0.1065550
C	4.1640396	1.3004048	0.5695095
H	5.4010244	0.1424130	1.9886723
H	5.1830816	-0.6231160	0.4055777
H	3.0995760	-0.3208722	2.6377936
H	3.5084382	-1.7944807	1.7339843
H	2.0779370	1.6805178	-0.0009333
H	4.8495050	1.7656684	-0.1422998
H	3.9584215	2.0264174	1.3642694
C	6.6021037	-0.3506160	-5.2650626
H	6.2248883	0.4741725	-5.8991095
O	7.5189753	-1.0740617	-5.6700131
C	5.9270356	-0.5003286	-3.9305413
H	4.8506011	-0.6684244	-4.0686695
H	6.3603885	-1.3342394	-3.3743266
H	6.0311363	0.4251753	-3.3488034
