31
-0.00514084 (energy)
C	-0.4236339	0.1242667	0.1033682
O	0.2947106	1.1171887	0.1991407
O	0.0669675	-1.1012544	-0.2581445
H	-0.6959557	-1.7325107	-0.2943535
N	-2.5832588	-1.1304061	0.0763539
C	-2.8866258	-0.4674459	-2.2483987
H	-2.2528987	0.4071166	-2.1740501
H	-3.3026041	-0.6746848	-3.2261298
C	-3.1413396	-1.3020644	-1.2190131
C	-3.9953768	-2.5376997	-1.3958105
H	-4.8823628	-2.5212987	-0.7507197
H	-4.3349847	-2.6125681	-2.4307102
H	-3.4349133	-3.4508212	-1.1569549
C	-2.3920882	-1.1576081	2.4394765
C	-3.1916372	-1.7676693	1.2789039
C	-1.9241828	0.1480184	0.4385362
C	-2.1546085	0.2916512	1.9686703
H	-2.9322401	-1.2130457	3.3886266
H	-1.4372773	-1.6829697	2.5615958
H	-4.2586785	-1.5114392	1.3676915
H	-3.1065341	-2.8563014	1.2281550
H	-2.3658953	0.9927806	-0.1014724
H	-1.3126005	0.7851621	2.4590528
H	-3.0503411	0.8982249	2.1440209
C	4.0315155	-0.0355219	-2.5242147
H	3.2206951	-0.3858955	-3.1908416
O	5.1414266	0.2428636	-2.9917734
C	3.6727933	0.0647798	-1.0680773
H	3.3479373	-0.9141426	-0.6909481
H	4.5278866	0.4166587	-0.4870666
H	2.8272812	0.7524919	-0.9340073
