31
-0.00374099 (energy)
C	1.2100483	0.4969740	-2.1278423
O	1.6576540	1.2118439	-3.0220993
O	1.2523638	-0.8694678	-2.1936383
H	0.8115319	-1.2241074	-1.3801609
N	-0.0000000	-0.0000000	0.0000000
C	-2.1018156	0.0825725	-1.2294613
H	-1.7151513	0.7092662	-2.0230248
H	-3.1301940	-0.2394920	-1.3326918
C	-1.3710777	-0.3304320	-0.1727914
C	-1.9521357	-1.2474789	0.8802176
H	-1.9373076	-0.7912069	1.8775898
H	-2.9890957	-1.4868737	0.6365780
H	-1.3935225	-2.1902481	0.9442461
C	2.0400919	0.5433839	1.0790706
C	0.6595227	-0.0787995	1.3346069
C	0.6181461	1.0647399	-0.8271339
C	1.7278659	1.6720125	0.0755169
H	2.5060957	0.9088784	1.9982973
H	2.7132653	-0.1957535	0.6284099
H	0.1058642	0.5042420	2.0866967
H	0.7157729	-1.1140788	1.6809745
H	-0.1148025	1.8289509	-1.1083997
H	2.5911011	1.9969564	-0.5094975
H	1.3278870	2.5463098	0.6014804
C	3.6088683	5.1077936	2.4629098
H	4.6682325	5.2083678	2.1592399
O	3.0038970	4.0490653	2.2601387
C	3.0051993	6.3209362	3.1132534
H	3.0638739	7.1819858	2.4341379
H	1.9627085	6.1333692	3.3789754
H	3.5733297	6.5885426	4.0140464
