31
-0.00377946 (energy)
C	1.9264108	0.2607620	-1.5683934
O	2.9170305	-0.1051421	-2.1975771
O	1.5197010	1.5673009	-1.5396478
H	0.7239940	1.6223275	-0.9517108
N	0.0000000	0.0000000	0.0000000
C	1.5305527	0.3429077	1.8643618
H	2.4088715	0.0254229	1.3168613
H	1.6961809	0.6808562	2.8793998
C	0.2866917	0.3696027	1.3416773
C	-0.8957641	0.8711947	2.1401979
H	-1.6676404	0.1013178	2.2612436
H	-0.5708637	1.1794818	3.1358660
H	-1.3695666	1.7352089	1.6565113
C	-1.1698233	-0.8796777	-1.8652922
C	-1.3761338	-0.3824151	-0.4270475
C	1.0167336	-0.7176319	-0.8069595
C	0.1932486	-1.5970061	-1.7885960
H	-1.9783043	-1.5375241	-2.1959279
H	-1.1186289	-0.0309807	-2.5578774
H	-1.7796060	-1.1875247	0.2062952
H	-2.0551429	0.4719646	-0.3644377
H	1.6617013	-1.3395567	-0.1764292
H	0.6941804	-1.7022669	-2.7534758
H	0.0704533	-2.5984669	-1.3607946
C	5.9212875	-3.5343726	-4.0410623
H	6.4010373	-2.8313599	-4.7483076
O	5.9835334	-4.7527550	-4.2402656
C	5.2213039	-2.8984694	-2.8728464
H	4.4375911	-2.2160943	-3.2281003
H	4.7790366	-3.6625558	-2.2300802
H	5.9296996	-2.2926314	-2.2923732
