31
-0.00383945 (energy)
C	0.7738585	2.6133767	2.1672692
O	0.4339267	3.7877816	2.0395788
O	2.0747507	2.2097709	2.0328635
H	2.0987206	1.2261453	2.1501393
N	0.4187878	0.1594957	2.4694377
C	0.0191434	-0.0313034	0.0736284
H	-0.2783429	1.0023977	-0.0486880
H	0.0504062	-0.6296734	-0.8279925
C	0.3760370	-0.5770376	1.2551117
C	0.8311684	-2.0158247	1.3559997
H	0.1873611	-2.6060996	2.0195079
H	0.8142357	-2.4833998	0.3695703
H	1.8546675	-2.0868513	1.7463419
C	0.2507611	0.6490819	4.7832455
C	0.3817937	-0.5198321	3.7958992
C	-0.2139324	1.4985946	2.5494716
C	-0.6664250	1.6338712	4.0300077
H	-0.1628113	0.3341103	5.7452612
H	1.2317608	1.1029544	4.9682349
H	-0.4869621	-1.1915519	3.8744493
H	1.2858695	-1.1133220	3.9551302
H	-1.0719712	1.5766524	1.8727007
H	-0.5937062	2.6654165	4.3816208
H	-1.7126664	1.3198973	4.1184152
C	3.3087294	2.0447326	-1.3707404
H	2.4226153	2.2626336	-0.7447181
O	3.8185382	0.9187748	-1.3526807
C	3.8088869	3.1913063	-2.2039807
H	4.0727381	4.0399822	-1.5588617
H	4.6811652	2.8882645	-2.7869669
H	3.0168137	3.5409429	-2.8793973
