31
-0.00373454 (energy)
C	1.3902474	3.6059472	-1.4388772
O	1.5114767	4.4943577	-2.2797789
O	2.4691221	2.9782728	-0.8773282
H	2.1257910	2.2874870	-0.2554068
N	0.1501751	1.9632583	-0.0237070
C	0.1256510	0.4241237	-1.9122211
H	0.2356380	1.1997203	-2.6594493
H	0.0987963	-0.5936965	-2.2800050
C	0.0602433	0.6611903	-0.5853364
C	-0.0431613	-0.4681354	0.4153446
H	-0.9566873	-0.4015845	1.0188315
H	-0.0539400	-1.4282860	-0.1042234
H	0.8072341	-0.4688004	1.1094552
C	-0.2289366	3.7848826	1.4458485
C	-0.3495589	2.2569440	1.3497447
C	0.0241148	3.1583183	-0.8931128
C	-0.5985245	4.2489051	0.0222982
H	-0.8849993	4.2045511	2.2134314
H	0.8017785	4.0709526	1.6874518
H	-1.3985631	1.9437892	1.4665282
H	0.2470703	1.7338770	2.1016572
H	-0.6224376	2.9595428	-1.7549717
H	-0.2296745	5.2457418	-0.2292404
H	-1.6870128	4.2494965	-0.1050183
C	4.2804967	-0.4958756	2.9835726
H	5.2319336	-0.9688755	2.6743447
O	3.4002871	-0.2688926	2.1458841
C	4.1657625	-0.1716051	4.4467071
H	4.9744042	0.5079090	4.7473834
H	3.1995904	0.2899260	4.6613631
H	4.2799247	-1.0847047	5.0458978
