31
-0.00379893 (energy)
C	-0.2809969	-1.7257616	1.9365716
O	-0.7510555	-2.8614419	1.9175911
O	0.8071881	-1.3972644	2.6989534
H	0.9822612	-0.4301011	2.5732872
N	-0.1955390	0.7130214	1.4037041
C	-1.7267976	1.1242027	3.2536228
H	-2.1440623	0.1252862	3.2463261
H	-2.0960301	1.7909361	4.0224389
C	-0.7724038	1.5474770	2.3985947
C	-0.1913045	2.9408640	2.4893005
H	-0.3525110	3.5152702	1.5688521
H	-0.6573145	3.4875462	3.3114499
H	0.8907931	2.9136245	2.6717422
C	0.7781243	0.0479798	-0.6533166
C	0.5067119	1.2827264	0.2185311
C	-0.8282892	-0.5845404	1.0632823
C	-0.4841417	-0.8108046	-0.4351848
H	0.9381994	0.3093529	-1.7029753
H	1.6693847	-0.4817992	-0.2961460
H	-0.1343226	2.0004106	-0.3163691
H	1.4205764	1.8016884	0.5193101
H	-1.9132990	-0.5515742	1.2116377
H	-0.3446971	-1.8701530	-0.6617717
H	-1.3072776	-0.4382833	-1.0554199
C	4.7617697	3.5012212	-0.8121495
H	5.7555164	3.1145556	-1.1080212
O	3.8503028	2.7156743	-0.5290303
C	4.6319212	4.9984364	-0.7884022
H	4.8547904	5.4125411	-1.7808203
H	3.6235906	5.2899754	-0.4869869
H	5.3642678	5.4299660	-0.0932303
