31
-0.00190543 (energy)
C	2.5966591	-1.3897081	-2.8865349
O	3.4201998	-1.2691117	-3.7911467
O	1.4374501	-2.1004216	-3.0427526
H	0.9264393	-2.0332405	-2.1964654
N	1.6028788	-0.9495865	-0.6376226
C	0.5864633	1.0752679	-1.5336617
H	1.3053228	1.1873962	-2.3353260
H	-0.2128674	1.8046940	-1.5028061
C	0.6218118	0.0781514	-0.6250303
C	-0.4401385	-0.0556894	0.4435106
H	-0.0173709	0.0013326	1.4540409
H	-1.1754967	0.7448992	0.3422071
H	-0.9702862	-1.0136840	0.3650767
C	3.1250434	-2.5840542	0.1580939
C	1.8966762	-1.7629102	0.5766850
C	2.8158827	-0.8092676	-1.4795599
C	3.9196665	-1.5924212	-0.7157744
H	3.6955648	-2.9437295	1.0188276
H	2.8173328	-3.4552043	-0.4326629
H	2.1365361	-1.1197715	1.4374719
H	1.0391788	-2.3851837	0.8457792
H	3.0992391	0.2420972	-1.6007355
H	4.6232394	-2.0701364	-1.4011784
H	4.4835613	-0.8978149	-0.0828754
C	-0.3165787	0.4765347	-6.7385596
H	-0.1716910	1.3930696	-7.3415143
O	-0.9346363	-0.4844009	-7.2103855
C	0.2800642	0.5094041	-5.3594240
H	-0.1450234	1.3425360	-4.7838907
H	0.0902770	-0.4313176	-4.8382711
H	1.3621754	0.6858840	-5.4202794
