31
-0.00564545 (energy)
C	2.3214739	0.5474244	0.7416188
O	3.3616728	0.3894100	1.3773098
O	2.0932246	1.6596184	-0.0227174
H	1.1862027	1.5761826	-0.4128420
N	-0.0000000	-0.0000000	0.0000000
C	-0.8493083	1.0943995	2.0042423
H	0.0640005	0.9625897	2.5703612
H	-1.6455429	1.6346078	2.5003568
C	-1.0185808	0.6616709	0.7372796
C	-2.3013478	0.9193269	-0.0213728
H	-2.7921146	-0.0120489	-0.3293376
H	-3.0011715	1.4755263	0.6054008
H	-2.1193642	1.5081800	-0.9297209
C	1.0304787	-1.4921100	-1.5275325
C	-0.3182330	-0.8399904	-1.1897474
C	1.2072142	-0.5111969	0.6937130
C	1.6455939	-1.7493229	-0.1368915
H	0.9125772	-2.4062961	-2.1158236
H	1.6558723	-0.7978711	-2.1015508
H	-1.0684599	-1.6077457	-0.9451547
H	-0.7119591	-0.2275505	-2.0051216
H	0.9836429	-0.7967497	1.7275495
H	2.7316701	-1.8648648	-0.1465783
H	1.2137093	-2.6536016	0.3066986
C	-0.4859991	4.7861439	-1.9972830
H	0.3663684	5.4679146	-2.1796049
O	-0.2823611	3.6256103	-1.6235109
C	-1.8476954	5.3761404	-2.2355378
H	-1.9318929	5.7244770	-3.2736223
H	-2.6254810	4.6370550	-2.0321196
H	-1.9962019	6.2545343	-1.5935228
