31
-0.00512744 (energy)
C	2.1508669	1.8052138	2.0592779
O	2.5647752	1.4547791	3.1624373
O	1.2714944	2.8424173	1.9037273
H	1.0636001	2.9189397	0.9379262
N	1.8474711	1.6472981	-0.4149749
C	0.0410749	0.0546042	-0.0458120
H	0.3964577	-0.2575611	0.9279709
H	-0.8855296	-0.3926016	-0.3824948
C	0.6624710	0.9729818	-0.8149357
C	0.0908416	1.4062887	-2.1464448
H	0.7778683	1.2005321	-2.9763929
H	-0.8419408	0.8743848	-2.3438053
H	-0.1242862	2.4826245	-2.1599950
C	3.9594704	2.7145946	-0.5632012
C	2.7442239	2.3047346	-1.4079334
C	2.6256012	1.1564684	0.7484365
C	4.0967731	1.5442471	0.4317068
H	4.8558488	2.8624903	-1.1717701
H	3.7539508	3.6502179	-0.0293917
H	3.0435634	1.6012938	-2.2001967
H	2.2459771	3.1558192	-1.8794661
H	2.5269867	0.0717411	0.8666918
H	4.6520974	1.7952450	1.3381396
H	4.5988411	0.6964541	-0.0480758
C	1.9334759	-2.5661320	3.4892862
H	2.9748838	-2.6911366	3.8420272
O	1.7081216	-2.3102262	2.3011196
C	0.8713918	-2.7290090	4.5402507
H	1.0256580	-2.0020243	5.3487940
H	-0.1208206	-2.5898269	4.1058318
H	0.9390501	-3.7266827	4.9939937
