31
-0.00524392 (energy)
C	-0.4338025	-0.0674738	0.1133823
O	-0.0875315	1.0176801	0.5755756
O	0.4185264	-0.8622449	-0.6043624
H	-0.0879151	-1.6634704	-0.8931566
N	-2.0421865	-1.8915489	-0.4564983
C	-2.6886289	-0.6383907	-2.4433875
H	-2.3832783	0.3210697	-2.0456512
H	-3.0677863	-0.6368017	-3.4573802
C	-2.5857256	-1.8011077	-1.7661860
C	-2.9825665	-3.1189695	-2.3932339
H	-3.7832723	-3.6172563	-1.8331125
H	-3.3379400	-2.9560485	-3.4126075
H	-2.1341559	-3.8140681	-2.4379508
C	-1.7130340	-2.6349928	1.7707386
C	-2.3278087	-3.0569184	0.4281989
C	-1.8319514	-0.6631423	0.3477060
C	-2.0059832	-1.1217416	1.8223030
H	-2.1455668	-3.1806205	2.6139048
H	-0.6315980	-2.8168480	1.7681565
H	-3.4115308	-3.2199842	0.5334140
H	-1.8841745	-3.9707266	0.0243658
H	-2.5636333	0.1116106	0.0932616
H	-1.3518565	-0.5659126	2.4977124
H	-3.0415909	-0.9470959	2.1354036
C	2.6837835	2.1108006	-2.2344170
H	1.9257770	2.7526055	-1.7464666
O	2.8270424	2.1445787	-3.4617507
C	3.4831845	1.2371718	-1.3087774
H	2.8145636	0.5724479	-0.7456298
H	4.2036471	0.6410709	-1.8728467
H	4.0122587	1.8540990	-0.5703368
