31
-0.00274726 (energy)
C	1.3782595	3.6909868	-1.2177963
O	1.9416367	4.7727016	-1.0642232
O	0.0917822	3.5947802	-1.6749652
H	-0.1519119	2.6344379	-1.6892236
N	1.1303915	1.2102100	-1.0654128
C	0.3856656	1.4720911	1.2395436
H	0.8757854	2.4267210	1.3825881
H	-0.1970137	1.1040028	2.0743728
C	0.4377337	0.7637603	0.0920863
C	-0.3096370	-0.5415957	-0.0657553
H	0.3649321	-1.3791083	-0.2818215
H	-0.8511830	-0.7758400	0.8528380
H	-1.0389745	-0.4903273	-0.8845353
C	2.4099064	1.1382314	-3.0602298
C	1.5458163	0.2638835	-2.1397701
C	2.0805011	2.3453056	-0.9717323
C	3.1456589	2.0603222	-2.0668395
H	3.0924623	0.5443807	-3.6743814
H	1.7744541	1.7272625	-3.7324087
H	2.1381310	-0.5684299	-1.7292437
H	0.6737311	-0.1571793	-2.6468316
H	2.5461594	2.3964499	0.0186661
H	3.5221997	2.9832051	-2.5135045
H	3.9940746	1.5320861	-1.6172018
C	6.8770224	2.5486539	-1.0040549
H	6.7811950	2.9296899	0.0304554
O	6.7589404	1.3395852	-1.2325756
C	7.1508971	3.5895102	-2.0531921
H	8.0815956	4.1241309	-1.8207529
H	7.2297687	3.1268768	-3.0392581
H	6.3482791	4.3388893	-2.0601766
