31
-0.00564502 (energy)
C	-0.3623688	-0.1487755	-0.2283584
O	0.6414062	-0.5848626	-0.7881343
O	-0.2926686	0.6432124	0.8857242
H	-1.2200537	0.8453919	1.1702022
N	-2.8127520	0.0910301	0.1923894
C	-2.7364529	-1.9458229	1.5270917
H	-1.8507862	-2.3359694	1.0419345
H	-3.1390792	-2.5405461	2.3371168
C	-3.3180616	-0.7725013	1.2012858
C	-4.5262856	-0.2545077	1.9491554
H	-5.3925683	-0.1201458	1.2898705
H	-4.8091662	-0.9574321	2.7351783
H	-4.3213694	0.7153937	2.4206030
C	-2.7826213	1.6646474	-1.5808718
C	-3.6705071	1.1283023	-0.4484519
C	-1.7843294	-0.3978064	-0.7580380
C	-2.0433562	0.4009745	-2.0656659
H	-3.3652419	2.1457655	-2.3713160
H	-2.0695998	2.4002786	-1.1896828
H	-4.5921667	0.6854084	-0.8564995
H	-3.9541999	1.8992969	0.2726748
H	-1.8827954	-1.4745299	-0.9349940
H	-1.1150255	0.6084721	-2.6024642
H	-2.6911752	-0.1866808	-2.7259752
C	2.8078387	-2.6648776	0.7432403
H	2.1946457	-2.8288931	-0.1632232
O	2.6224706	-3.3571132	1.7504447
C	3.8367558	-1.5742514	0.6386358
H	3.3508088	-0.6180843	0.4027401
H	4.3929580	-1.4824370	1.5739357
H	4.5314220	-1.7882071	-0.1844531
