31
-0.00325353 (energy)
C	2.1508669	-2.6859939	0.5337219
O	2.5647752	-3.4661405	-0.3213433
O	1.2714944	-3.0698849	1.5097418
H	1.0636001	-2.2717379	2.0589127
N	1.8474711	-0.4642704	1.6340894
C	0.0410749	0.0123723	0.0701946
H	0.3964577	-0.6748658	-0.6870399
H	-0.8855296	0.5275510	-0.1487556
C	0.6624710	0.2192641	1.2500948
C	0.0908416	1.1557312	2.2911042
H	0.7778683	1.9773656	2.5278879
H	-0.8419408	1.5926024	1.9291422
H	-0.1242862	0.6292981	3.2300134
C	3.9594704	-0.8695510	2.6325084
C	2.7442239	0.0669386	2.6999255
C	2.6256012	-1.2263992	0.6273127
C	4.0967731	-1.1459927	1.1215037
H	4.8558488	-0.4164627	3.0648744
H	3.7539508	-1.7996552	3.1758772
H	3.0435634	1.1047792	2.4868595
H	2.2459771	0.0497555	3.6727527
H	2.5269867	-0.7864477	-0.3712164
H	4.6520974	-2.0564855	0.8856578
H	4.5988411	-0.3065922	0.6271849
C	6.2505406	2.6710532	2.8816387
H	5.8779230	3.7039590	2.7443630
O	6.1091485	1.8363913	1.9808836
C	6.9122534	2.3930661	4.2022209
H	6.2127381	2.5937025	5.0246991
H	7.2477717	1.3549638	4.2506758
H	7.7691558	3.0649474	4.3440206
