31
-0.00343589 (energy)
C	-0.3623688	0.1990546	-0.1861693
O	0.6414062	0.6746005	-0.7128353
O	-0.2926686	-0.7605755	0.7872449
H	-1.2200537	-1.0056235	1.0357519
N	-2.8127520	-0.1736594	0.1230552
C	-2.7364529	-1.8417802	-1.6510850
H	-1.8507862	-1.4317418	-2.1195509
H	-3.1390792	-2.7427717	-2.0961136
C	-3.3180616	-1.3171789	-0.5521643
C	-4.5262856	-1.9637381	0.0878259
H	-5.3925683	-1.2911376	0.1056630
H	-4.8091662	-2.8598811	-0.4679280
H	-4.3213694	-2.2596019	1.1248583
C	-2.7826213	1.8459177	1.3648423
C	-3.6705071	0.6375665	1.0332881
C	-1.7843294	0.6774433	-0.5233947
C	-2.0433562	2.1039123	0.0361838
H	-3.3652419	2.7078985	1.7013920
H	-2.0695998	1.5884127	2.1572269
H	-4.5921667	0.9625072	0.5262660
H	-3.9541999	0.0612770	1.9177918
H	-1.8827954	0.6647400	-1.6144884
H	-1.1150255	2.6685870	0.1473151
H	-2.6911752	2.6521448	-0.6572051
C	5.0510810	1.0126467	-1.5986977
H	5.1653464	1.9731484	-1.0611452
O	5.7998891	0.0641026	-1.3387694
C	3.9530864	0.9728814	-2.6243217
H	4.1181193	1.7482026	-3.3843796
H	3.9125181	-0.0077839	-3.1030979
H	2.9867187	1.1931359	-2.1516329
