31
-0.00517904 (energy)
C	-0.2809969	-2.2840320	1.2295366
O	-0.7510555	-3.3447307	0.8232751
O	0.8071881	-2.2360957	2.0582938
H	0.9822612	-1.2842791	2.2709956
N	-0.1955390	0.1899257	1.5629180
C	-1.7267976	-0.0563999	3.4419053
H	-2.1440623	-0.9925787	3.0933990
H	-2.0960301	0.3071738	4.3923924
C	-0.7724038	0.6337847	2.7832101
C	-0.1913045	1.9121170	3.3450123
H	-0.3525110	2.7666942	2.6765322
H	-0.6573145	2.1446384	4.3045562
H	0.8907931	1.8241215	3.5071349
C	0.7781243	0.2685338	-0.5975066
C	0.5067119	1.1306264	0.6440705
C	-0.8282892	-0.9129524	0.7992339
C	-0.4841417	-0.6130650	-0.6862515
H	0.9381994	0.8731486	-1.4944683
H	1.6693847	-0.3514552	-0.4430713
H	-0.1343226	1.9879757	0.3868912
H	1.4205764	1.5154186	1.1042058
H	-1.9132990	-0.9327148	0.9499174
H	-0.3446971	-1.5310296	-1.2614921
H	-1.3072776	-0.0508766	-1.1416721
C	4.4958086	-2.1424641	-0.0993749
H	3.6736903	-2.7232509	-0.5591477
O	4.3200803	-0.9590519	0.2115386
C	5.7829416	-2.8922048	0.1012633
H	6.1549477	-3.2680539	-0.8612312
H	6.5349003	-2.2453742	0.5581497
H	5.6133998	-3.7693300	0.7397931
