31
-0.00503874 (energy)
C	0.9263973	-2.2112173	-1.0294794
O	1.3616161	-3.2173211	-0.4732194
O	0.1645879	-2.2748494	-2.1647681
H	-0.0429075	-1.3461046	-2.4408589
N	0.6638417	0.2417526	-1.4205245
C	2.7354637	0.2127072	-2.7025390
H	3.1250686	-0.6748114	-2.2203399
H	3.3453793	0.6353306	-3.4907880
C	1.5461900	0.7736128	-2.3990350
C	1.0311586	1.9858402	-3.1424587
H	0.8678312	2.8402895	-2.4743301
H	1.7502564	2.2898323	-3.9056384
H	0.0767182	1.7750263	-3.6420217
C	-0.9546451	0.1640350	0.3103985
C	-0.4014114	1.0758598	-0.7945404
C	1.1420012	-0.7941293	-0.4727701
C	0.3061023	-0.5654074	0.8171896
H	-1.4640709	0.7282741	1.0964284
H	-1.6699964	-0.5528445	-0.1102413
H	0.0180174	1.9971629	-0.3616497
H	-1.1572906	1.3599541	-1.5313409
H	2.2123175	-0.6839096	-0.2663308
H	0.0975700	-1.5043575	1.3347729
H	0.8674642	0.0802765	1.5020120
C	2.5490302	-3.0606278	3.1217420
H	3.3070368	-3.6526133	2.5744193
O	2.4057710	-1.8578056	2.8753527
C	1.7496292	-3.8205009	4.1428340
H	2.4182501	-4.2596648	4.8952488
H	1.0291664	-3.1614894	4.6319290
H	1.2205551	-4.6548514	3.6635081
