31
-0.00496006 (energy)
C	-2.3466561	0.8478367	-0.1152882
O	-3.4927276	1.0328906	0.2888905
O	-1.9546423	1.1851026	-1.3825136
H	-1.0058361	0.9185845	-1.4853833
N	-0.0000000	-0.0000000	0.0000000
C	-0.8005999	-2.1812931	-0.7328182
H	-1.8132058	-2.0255965	-0.3829822
H	-0.6090761	-3.1177296	-1.2410991
C	0.1894785	-1.2739944	-0.5999438
C	1.5737336	-1.5275785	-1.1539874
H	2.3404601	-1.5132974	-0.3697159
H	1.6089656	-2.5048871	-1.6393562
H	1.8535318	-0.7703444	-1.8978097
C	0.4613070	1.9674426	1.2401612
C	1.1470840	0.7923061	0.5280193
C	-1.2314134	0.2796980	0.7780208
C	-0.7933301	1.3127886	1.8531224
H	1.1079465	2.4315005	1.9899818
H	0.1763219	2.7385036	0.5143305
H	1.7428398	0.2022937	1.2415140
H	1.8065576	1.1114340	-0.2832697
H	-1.6218309	-0.6290419	1.2493045
H	-1.5940602	2.0187002	2.0844782
H	-0.5316235	0.7843528	2.7768549
C	2.3663961	1.5866022	-4.8288476
H	3.3661544	1.3571622	-5.2440868
O	2.1390038	1.4093151	-3.6268184
C	1.3608063	2.1085270	-5.8165023
H	1.2128829	1.3804409	-6.6252397
H	0.4073525	2.3072062	-5.3225092
H	1.7334766	3.0297385	-6.2837276
