31
-0.00305998 (energy)
C	1.8416350	-1.7023633	0.5141303
O	2.5956955	-2.2079350	1.3495317
O	1.3202403	-2.4278475	-0.5367101
H	1.6741204	-3.3441577	-0.5196112
N	1.3112508	0.3962750	-0.7440264
C	3.7245643	0.5460829	-0.8873559
H	3.9050107	0.0066594	0.0338414
H	4.5996933	0.8909503	-1.4229628
C	2.4885908	0.7896394	-1.3857510
C	2.3030518	1.5218435	-2.6967846
H	1.6789462	2.4166072	-2.5786126
H	3.2719264	1.8348369	-3.0909604
H	1.8225212	0.8854959	-3.4507694
C	-0.9464324	-0.2006266	-0.3019347
C	-0.0517855	0.5904532	-1.2770666
C	1.3321421	-0.2641007	0.5545722
C	-0.1490847	-0.1986821	1.0192893
H	-1.9370768	0.2505934	-0.1919204
H	-1.0730529	-1.2263769	-0.6602989
H	-0.3242797	1.6568684	-1.2904769
H	-0.1413359	0.2101571	-2.3005625
H	1.9953644	0.2599041	1.2526192
H	-0.4193538	-1.0219572	1.6867854
H	-0.3011169	0.7394882	1.5650524
C	-0.9758811	-0.7620300	-5.6131063
H	-1.0760356	-1.7026922	-5.0389054
O	-0.1189636	0.0700735	-5.2948166
C	-1.9335109	-0.6001965	-6.7602040
H	-2.9689037	-0.6455996	-6.3969588
H	-1.7641305	0.3515318	-7.2682397
H	-1.8114101	-1.4261837	-7.4734010
