31
-0.00301565 (energy)
C	1.4836229	1.3656197	-1.4840804
O	2.5320937	2.0141039	-1.5318552
O	0.3725174	1.7131561	-2.2237481
H	0.5480690	2.5403811	-2.7237763
N	-0.0000000	-0.0000000	-0.0000000
C	0.5593398	1.7191937	1.6120111
H	1.5241255	1.9442457	1.1753380
H	0.2828924	2.2895478	2.4894689
C	-0.2923634	0.7904576	1.1146192
C	-1.6424416	0.5447151	1.7520015
H	-1.7665475	-0.5036273	2.0514185
H	-1.7545692	1.1664110	2.6424952
H	-2.4637145	0.7880454	1.0659678
C	-0.2014850	-1.4050497	-1.9063340
C	-0.9188933	-0.9821944	-0.6087974
C	1.2857188	0.0831609	-0.6803694
C	1.2923926	-1.1700154	-1.5989439
H	-0.4134750	-2.4441186	-2.1755457
H	-0.5180306	-0.7634167	-2.7338166
H	-1.0762839	-1.8441733	0.0574569
H	-1.8987267	-0.5396454	-0.8191898
H	2.1138368	0.0590680	0.0375125
H	1.9006194	-1.0321316	-2.4975130
H	1.7116947	-2.0115883	-1.0358493
C	5.2814398	0.7816576	-2.1115852
H	5.3815943	1.7223198	-1.5373845
O	4.4245223	-0.0504458	-1.7932955
C	6.2390697	0.6198240	-3.2586829
H	7.2744626	0.6652270	-2.8954375
H	6.0696894	-0.3319043	-3.7667185
H	6.1169691	1.4458111	-3.9718799
