31
-0.00283949 (energy)
C	-0.3699741	0.0081727	2.5331882
O	0.0711611	0.2740299	3.6542703
O	-1.7125217	0.1046170	2.2320081
H	-2.2182164	0.3624548	3.0338437
N	-0.0827511	-1.4641425	0.5286085
C	0.3230195	-3.1518174	2.2180378
H	0.7078438	-2.4558312	2.9526511
H	0.2892276	-4.1929587	2.5122179
C	-0.1134208	-2.7828961	0.9897200
C	-0.6711900	-3.8002453	0.0185089
H	-0.1240097	-3.7977519	-0.9326283
H	-0.6021837	-4.8025777	0.4458555
H	-1.7262665	-3.6040254	-0.2109522
C	-0.5191289	0.5279600	-0.6920356
C	-0.5986497	-1.0093756	-0.7778143
C	0.4825153	-0.3867511	1.3302273
C	0.6172999	0.7857670	0.3196289
H	-0.3225247	0.9862252	-1.6659036
H	-1.4607914	0.9293519	-0.3063186
H	0.0189799	-1.3939165	-1.6038508
H	-1.6270677	-1.3482940	-0.9441840
H	1.4560005	-0.6730806	1.7450240
H	0.5527800	1.7666552	0.7992889
H	1.5965097	0.7141783	-0.1673597
C	3.8228430	-1.2593978	3.2158295
H	3.7302143	-2.2028529	2.6449573
O	4.0687494	-0.2005398	2.6273042
C	3.6307454	-1.3816635	4.7015037
H	4.3641493	-2.0834910	5.1205546
H	3.7388162	-0.4071824	5.1824236
H	2.6367476	-1.7934513	4.9210773
