31
-0.00286849 (energy)
C	2.7276129	-0.4300372	-1.7584742
O	2.5637731	0.3876709	-2.6676582
O	2.7994723	-1.7866513	-1.9969687
H	2.6600825	-1.9667972	-2.9526181
N	2.2232439	-0.9347741	0.6414010
C	0.0497518	-0.0482425	0.0438547
H	0.4269309	0.6030084	-0.7344456
H	-1.0193168	-0.0285934	0.2122749
C	0.8347747	-0.8676077	0.7839408
C	0.2426687	-1.7792702	1.8363850
H	0.6831981	-1.5995992	2.8251856
H	-0.8341409	-1.6149782	1.9108613
H	0.4058111	-2.8369124	1.5932416
C	4.4821266	-1.6710355	0.7065004
C	3.1096740	-1.8515296	1.3853806
C	2.9389360	-0.0723949	-0.2897154
C	4.4259027	-0.2414277	0.1281751
H	5.3107315	-1.8047536	1.4083638
H	4.5961818	-2.3974082	-0.1034352
H	3.1549285	-1.5813847	2.4515176
H	2.7632450	-2.8886741	1.3182510
H	2.6109584	0.9692193	-0.1938767
H	5.1189746	-0.0855952	-0.7035375
H	4.6564867	0.5010107	0.9006717
C	6.1600775	2.9891594	3.1518227
H	6.6168092	3.4540259	2.2574637
O	5.1844612	2.2397871	3.0308839
C	6.8067402	3.3382469	4.4629456
H	6.7822825	4.4251059	4.6184646
H	6.2941553	2.8378543	5.2872275
H	7.8644464	3.0433497	4.4526283
