31
-0.00304267 (energy)
C	-1.9701257	1.5456639	0.5324644
O	-2.5709815	2.2247586	1.3690695
O	-1.9149930	1.9027561	-0.7986594
H	-2.4444989	2.7163794	-0.9496174
N	-1.3399899	-0.7867382	-0.1243295
C	-3.6123807	-1.2591157	0.5686115
H	-3.6591791	-0.4508598	1.2874129
H	-4.4992456	-1.8726347	0.4752077
C	-2.5279815	-1.5185096	-0.2008954
C	-2.5361537	-2.6442599	-1.2118237
H	-1.7220143	-3.3579087	-1.0330584
H	-3.4810626	-3.1886088	-1.1580768
H	-2.4220474	-2.2683059	-2.2365087
C	0.7661408	0.1885403	-0.6361059
C	-0.1561234	-0.9979195	-0.9808149
C	-1.1645663	0.2872784	0.8444872
C	0.3634708	0.5662286	0.8049383
H	1.8250651	-0.0742365	-0.7179994
H	0.5657253	1.0254121	-1.3114582
H	0.3308713	-1.9588057	-0.7545230
H	-0.4237388	-1.0013531	-2.0431512
H	-1.4897006	-0.0259839	1.8434210
H	0.6113324	1.5993984	1.0647519
H	0.8555790	-0.0898546	1.5319315
C	5.6102726	-0.5160886	-0.2123719
H	5.7929158	0.5290289	0.1021973
O	4.4533035	-0.9384496	-0.3174709
C	6.8418292	-1.3330141	-0.4861950
H	7.4748823	-1.3738087	0.4102572
H	6.5690038	-2.3460566	-0.7893253
H	7.4407535	-0.8601255	-1.2758020
