31
-0.0051121 (energy)
C	-0.4010449	-0.1931330	-0.2075188
O	0.5539840	-0.9698916	-0.2891959
O	-0.2917130	1.0418787	0.3968303
H	0.6127429	1.1571141	0.7626557
N	-2.8858613	-0.0423691	0.0598881
C	-2.5082069	-1.8357136	1.6436685
H	-1.6241690	-2.2134401	1.1457298
H	-2.8196471	-2.3616166	2.5370274
C	-3.2111015	-0.7603189	1.2137696
C	-4.4209470	-0.2609509	1.9728889
H	-5.3165843	-0.2343857	1.3394833
H	-4.6264273	-0.9157859	2.8220216
H	-4.2645634	0.7537879	2.3604330
C	-2.7120531	1.6712709	-1.5778233
C	-3.5883404	1.1666310	-0.4139755
C	-1.7834515	-0.4427947	-0.8045440
C	-2.0070489	0.3983566	-2.0916894
H	-3.3027450	2.1638964	-2.3559506
H	-1.9708203	2.3841172	-1.2049352
H	-4.6056573	0.9250701	-0.7580523
H	-3.6736295	1.9186561	0.3780928
H	-1.8190187	-1.5177858	-1.0163063
H	-1.0763268	0.6075870	-2.6268130
H	-2.6622519	-0.1650858	-2.7657639
C	3.7810773	2.3927295	-1.0461282
H	3.9315508	2.8331343	-2.0501124
O	2.7095106	2.5561906	-0.4519587
C	4.9459190	1.6152702	-0.5004372
H	5.8336805	2.2587854	-0.4386754
H	4.7106262	1.2184237	0.4893744
H	5.1996316	0.7895745	-1.1784268
