31
-0.0025789 (energy)
C	1.4147546	-2.7003580	-2.5766409
O	1.7004548	-2.6289434	-3.7747146
O	0.4099682	-3.5222759	-2.1104861
H	-0.0317915	-3.9720189	-2.8639630
N	1.2758308	-1.4091274	-0.4360866
C	0.4001194	0.3121438	-1.8980794
H	0.9394697	-0.0274558	-2.7732460
H	-0.2295538	1.1829237	-2.0281295
C	0.4710178	-0.2951673	-0.6891565
C	-0.3335056	0.2089435	0.4889654
H	0.3079319	0.4550185	1.3445818
H	-0.8836415	1.1093829	0.2085787
H	-1.0616248	-0.5377496	0.8304812
C	2.1935286	-3.3791023	0.5261502
C	1.3409317	-2.1354001	0.8476558
C	2.1511284	-1.9681037	-1.4579920
C	3.0734103	-2.9305059	-0.6595856
H	2.7866687	-3.7064409	1.3852853
H	1.5464041	-4.2059491	0.2192698
H	1.8141010	-1.5199530	1.6280467
H	0.3429383	-2.4151316	1.2025468
H	2.7281945	-1.1805651	-1.9564817
H	3.4386347	-3.7650637	-1.2649802
H	3.9438538	-2.3653894	-0.3072985
C	3.8203324	2.1249804	-3.4976002
H	3.9402578	3.2070106	-3.2990771
O	3.8262010	1.3186345	-2.5606989
C	3.6576634	1.7474799	-4.9433216
H	4.5277838	2.0852789	-5.5219659
H	3.5460629	0.6659909	-5.0458087
H	2.7794165	2.2511359	-5.3685583
