31
-0.00429732 (energy)
C	0.0341856	-0.3765627	-0.3134219
O	1.1296362	-0.1280813	0.1968233
O	-1.0990981	0.3464730	-0.0046623
H	-0.8917038	1.0176336	0.6821266
N	-1.4370860	-2.2038430	-1.1880392
C	-0.5890471	-3.3843409	0.7495683
H	0.3518804	-2.8495845	0.7784517
H	-0.7371756	-4.1400282	1.5102612
C	-1.5608889	-3.1463145	-0.1637853
C	-2.8690459	-3.9059479	-0.1315506
H	-3.0625157	-4.4239363	-1.0793544
H	-2.8483448	-4.6531726	0.6642409
H	-3.7197197	-3.2383543	0.0555691
C	-1.9262622	-0.6478871	-2.9167895
C	-2.4898866	-1.8724830	-2.1686085
C	-0.2112518	-1.4401465	-1.3803653
C	-0.3965638	-0.8034499	-2.7855526
H	-2.2541383	-0.6145456	-3.9600846
H	-2.2517459	0.2728338	-2.4238850
H	-2.6683847	-2.7119515	-2.8578873
H	-3.4395256	-1.6379220	-1.6752981
H	0.6689038	-2.0928434	-1.3483159
H	0.1435897	0.1412183	-2.8960710
H	-0.0097006	-1.5010622	-3.5370901
C	1.9905834	2.0369788	2.5175717
H	1.4427131	2.6287390	1.7597849
O	1.4348146	1.7166459	3.5742268
C	3.4049240	1.6774444	2.1577749
H	3.9914698	2.5879827	1.9763062
H	3.8672326	1.0965090	2.9586255
H	3.4216790	1.0985399	1.2248214
