31
-0.00273132 (energy)
C	2.5699069	1.2046185	2.8066019
O	3.0221071	0.6441111	3.8083264
O	1.7894500	2.3387440	2.8908128
H	1.6363968	2.5710764	3.8330146
N	1.6908449	0.8387508	0.4910157
C	0.6081235	-1.0567757	1.5406640
H	1.3651980	-1.1839190	2.3040878
H	-0.2192593	-1.7543771	1.5618577
C	0.6478927	-0.0851572	0.5974124
C	-0.4588994	0.0607052	-0.4239065
H	-0.0753513	0.0059358	-1.4505348
H	-1.1946176	-0.7355893	-0.2947119
H	-0.9803412	1.0207987	-0.3206587
C	2.9721495	2.7697893	-0.0364486
C	1.7476075	1.9464776	-0.4833682
C	2.8536795	0.7835009	1.3671746
C	3.8688671	1.7413398	0.6843766
H	3.4795552	3.2464918	-0.8804705
H	2.6614415	3.5503734	0.6641015
H	1.8764923	1.5668187	-1.5085131
H	0.8319665	2.5476119	-0.4627000
H	3.2479235	-0.2371259	1.4350486
H	4.5627889	2.1984660	1.3956336
H	4.4591854	1.1652295	-0.0372576
C	7.5130307	0.0202250	-1.6015540
H	7.6956738	-0.7747587	-0.8537403
O	6.3560616	0.3224240	-1.9147798
C	8.7445873	0.6658254	-2.1721208
H	9.3776403	-0.0901278	-2.6556761
H	8.4717620	1.4348652	-2.8978762
H	9.3435118	1.1132007	-1.3677837
