31
-0.00240734 (energy)
C	-2.0832088	0.3873352	-1.3337020
O	-3.2235331	-0.0275333	-1.5565249
O	-1.3093106	0.9678176	-2.3168434
H	-1.7871462	0.9478380	-3.1749937
N	-0.0000000	-0.0000000	-0.0000000
C	-0.4812147	-2.3183926	-0.5104469
H	-1.5517030	-2.1754906	-0.5864533
H	-0.1169331	-3.3248296	-0.6718236
C	0.3929857	-1.3191858	-0.2408043
C	1.8826657	-1.5770454	-0.1798223
H	2.3082092	-1.2790290	0.7867041
H	2.0846652	-2.6401393	-0.3250285
H	2.4211719	-1.0225833	-0.9588755
C	-0.0012356	2.3655350	0.2304616
C	0.9199025	1.1292241	0.2415307
C	-1.4047216	0.3853833	0.0335833
C	-1.3761557	1.8088006	0.6559511
H	0.3558712	3.1525344	0.9014203
H	-0.0616432	2.7767864	-0.7813904
H	1.4318645	1.0235874	1.2102463
H	1.6882287	1.1955817	-0.5365822
H	-1.9895144	-0.3094831	0.6474990
H	-2.2134427	2.4308673	0.3267673
H	-1.4376219	1.7129391	1.7459819
C	4.2428178	-3.0146606	3.0006206
H	4.0845715	-3.7242593	2.1663481
O	4.1822287	-1.7967239	2.7982070
C	4.5245408	-3.6414728	4.3373392
H	5.4221393	-4.2713649	4.2773410
H	4.6667720	-2.8712863	5.0983647
H	3.6947593	-4.2991824	4.6283617
