31
-0.00263522 (energy)
C	-1.8416349	-1.6345625	0.7004116
O	-2.5956954	-2.5588385	0.3854324
O	-1.3202402	-1.5148483	1.9717343
H	-1.6741202	-2.2277735	2.5476287
N	-1.3112508	0.7818153	0.3152367
C	-3.7245642	0.9887052	0.3287388
H	-3.9050107	-0.0166515	-0.0302044
H	-4.5996933	1.5971705	0.5173610
C	-2.4885908	1.4956425	0.5539764
C	-2.3030518	2.8992596	1.0876346
H	-1.6789461	3.5087288	0.4219664
H	-3.2719263	3.3923978	1.1884025
H	-1.8225211	2.8964412	2.0742568
C	0.9464324	0.0403910	0.3602556
C	0.0517855	1.2731960	0.5987537
C	-1.3321421	-0.5587850	-0.2550662
C	0.1490847	-0.8073859	-0.6531104
H	1.9370768	0.3153297	-0.0140589
H	1.0730530	-0.5150271	1.2941182
H	0.3242796	2.0987374	-0.0764520
H	0.1413360	1.6397629	1.6272465
H	-1.9953644	-0.6060701	-1.1266250
H	0.4193538	-1.8671094	-0.6352510
H	0.3011168	-0.4395157	-1.6742335
C	4.0595803	-2.1509518	-1.6966994
H	3.6869626	-2.8539644	-0.9276011
O	3.9181882	-0.9325694	-1.5431913
C	4.7212931	-2.7868552	-2.8870107
H	4.0217779	-3.4692304	-3.3880989
H	5.0568115	-2.0227690	-3.5914086
H	5.5781954	-3.3926933	-2.5637584
