31
-0.00259442 (energy)
C	2.8124024	-1.4723304	-0.7997946
O	2.4370171	-2.2582275	-1.6736120
O	3.3510329	-1.9059582	0.3936413
H	3.3374840	-2.8875945	0.4304445
N	2.3659267	0.7460957	0.2715567
C	0.0603960	0.0414540	0.0368741
H	0.2416957	-0.5782533	-0.8321693
H	-0.9608208	0.0846678	0.3931154
C	1.0301036	0.7338384	0.6815591
C	0.7182700	1.5574708	1.9119031
H	1.0129887	2.6067897	1.7848395
H	-0.3533607	1.5297779	2.1190216
H	1.2422537	1.1758024	2.7974038
C	4.7327064	0.9613171	0.2414965
C	3.4634982	1.4392296	0.9748399
C	2.8032874	0.0484132	-0.9304607
C	4.2326943	0.6064816	-1.1746531
H	5.5146953	1.7264285	0.2281960
H	5.1326461	0.0685507	0.7310246
H	3.3517130	2.5320674	0.9049556
H	3.4912835	1.1738050	2.0373680
H	2.1385565	0.2638027	-1.7751231
H	4.8808771	-0.1046478	-1.6947803
H	4.1534218	1.5052906	-1.7967408
C	4.6054392	4.2600877	3.9578191
H	4.1383014	4.9259584	3.2074982
O	4.6785431	3.0442171	3.7472798
C	5.1173459	4.9408793	5.1961858
H	4.2985988	5.4697426	5.7021539
H	5.5600776	4.2117186	5.8780143
H	5.8661659	5.6981632	4.9285983
