31
-0.00242308 (energy)
C	0.7050901	-2.1250725	1.1204747
O	1.5352464	-3.0376615	1.1092000
O	-0.6092070	-2.3342633	1.4828386
H	-0.7571135	-3.2868418	1.6722210
N	-0.0000000	-0.0000000	-0.0000000
C	0.5700002	-1.2366278	-2.0032272
H	1.3127159	-1.8582001	-1.5193217
H	0.4147306	-1.4065524	-3.0609020
C	-0.1564778	-0.2930254	-1.3573232
C	-1.2041149	0.5220345	-2.0836088
H	-1.0118140	1.5991471	-2.0004023
H	-1.2128462	0.2608537	-3.1436870
H	-2.2090969	0.3376172	-1.6831808
C	-0.3799034	0.7570905	2.2206660
C	-0.8070519	0.9782980	0.7558472
C	1.0116393	-0.6616606	0.8134385
C	1.0527478	0.1944724	2.1094404
H	-0.4212077	1.6800990	2.8066933
H	-1.0352223	0.0195443	2.6931110
H	-0.5908875	2.0071906	0.4297688
H	-1.8802103	0.8039789	0.6211919
H	1.9831994	-0.6683080	0.3057564
H	1.3585534	-0.3820007	2.9872444
H	1.7793119	1.0029041	1.9691630
C	3.8525356	3.2553529	4.3599463
H	4.8695900	2.8730898	4.5698469
O	3.2788215	2.9461891	3.3095740
C	3.2639808	4.1424390	5.4209645
H	3.9084279	5.0169391	5.5821615
H	2.2636484	4.4718646	5.1321902
H	3.2139268	3.6051173	6.3773082
