31
-0.00326478 (energy)
C	0.4352305	0.1505775	-0.1705938
O	0.5756521	-0.5528097	0.8332156
O	-0.8073851	0.4412203	-0.6939280
H	-1.5044466	-0.0218966	-0.1793643
N	1.4487753	0.7849888	-2.3703206
C	1.9191596	-1.5885162	-2.4811358
H	1.9760493	-1.7211358	-1.4081405
H	2.0824713	-2.4718743	-3.0850123
C	1.6502126	-0.4026928	-3.0784950
C	1.5519012	-0.2886178	-4.5840442
H	2.2540686	0.4543888	-4.9827629
H	1.7780824	-1.2508243	-5.0477877
H	0.5448437	0.0098692	-4.9019781
C	0.7857909	2.9851763	-1.7632811
C	1.0984538	2.0852692	-2.9755070
C	1.5721996	0.8405756	-0.9196078
C	1.6104850	2.3640088	-0.6163588
H	1.0486067	4.0312581	-1.9469096
H	-0.2809255	2.9345529	-1.5262689
H	1.9372726	2.4879137	-3.5636691
H	0.2341039	1.9983845	-3.6429938
H	2.4879223	0.3410497	-0.5825025
H	1.2199164	2.6073502	0.3759211
H	2.6525511	2.7008257	-0.6586363
C	2.0635595	-2.1961718	4.8504062
H	2.0165939	-3.2872143	4.6715115
O	1.5544079	-1.7124879	5.8676705
C	2.7703597	-1.3976090	3.7912514
H	2.2803064	-1.5424902	2.8191896
H	2.7693217	-0.3362405	4.0482972
H	3.8046026	-1.7495207	3.6802878
