31
-0.00195665 (energy)
C	-2.7276128	-0.1973308	-1.7995067
O	-2.5637731	-1.2766843	-2.3741875
O	-2.7994722	0.9958995	-2.4876076
H	-2.6600824	0.8383299	-3.4472378
N	-2.2232438	1.0977725	0.2830081
C	-0.0497518	0.0603323	0.0247101
H	-0.4269309	-0.8178377	-0.4839121
H	1.0193168	0.0994713	0.1896936
C	-0.8347747	1.0834082	0.4399240
C	-0.2426686	2.3000478	1.1170911
H	-0.6831981	2.4694021	2.1077108
H	0.8341409	2.1711362	1.2432671
H	-0.4058110	3.2107464	0.5268761
C	-4.4821265	1.8118973	0.0923652
C	-3.1096740	2.2136970	0.6685713
C	-2.9389360	-0.0310595	-0.2970040
C	-4.4259027	0.2707065	0.0378719
H	-5.3107314	2.1776027	0.7061667
H	-4.5961816	2.2174501	-0.9171594
H	-3.1549284	2.3244842	1.7628074
H	-2.7632448	3.1653343	0.2507658
H	-2.6109585	-0.9770778	0.1493079
H	-5.1189746	-0.1601906	-0.6903844
H	-4.6564868	-0.1627479	1.0177102
C	4.4546782	0.6805061	2.0710896
H	5.4061151	0.1302694	1.9422860
O	3.5744687	0.6072942	1.2062870
C	4.3399440	1.4856422	3.3350793
H	5.1485857	2.2270138	3.3852152
H	3.3737720	1.9927564	3.3789369
H	4.4541060	0.8325445	4.2104328
