31
-0.0032237 (energy)
C	-2.4865711	0.0082988	0.2923077
O	-3.4034930	-0.1966401	1.0919075
O	-2.6151876	-0.2593051	-1.0546486
H	-3.4951807	-0.6571891	-1.2347823
N	-0.0000000	-0.0000000	-0.0000000
C	-0.1672634	-2.0233748	1.3210016
H	-1.0646310	-1.7177926	1.8439681
H	0.2355787	-2.9935768	1.5819334
C	0.4456113	-1.2697339	0.3766723
C	1.6802963	-1.7672104	-0.3426515
H	2.5245678	-1.0757185	-0.2281130
H	1.9810463	-2.7375093	0.0575071
H	1.5003536	-1.8878694	-1.4184783
C	-0.3817965	2.0079247	-1.2129880
C	0.6023205	0.8307946	-1.0614590
C	-1.1405191	0.6336525	0.6485304
C	-1.0556450	2.1099821	0.1715380
H	0.1240186	2.9346641	-1.5000140
H	-1.1296653	1.7731740	-1.9760121
H	1.6028563	1.1842670	-0.7687826
H	0.7063060	0.2728763	-1.9985302
H	-1.0649134	0.5593576	1.7396209
H	-2.0326376	2.6007685	0.1400321
H	-0.4232525	2.6661344	0.8729004
C	2.1342954	-0.4210592	3.1543108
H	2.1707153	-1.5082504	2.9511565
O	2.2848862	0.3872533	2.2312911
C	1.8960923	-0.0393744	4.5884148
H	2.6851586	-0.4587476	5.2268092
H	1.8752517	1.0471212	4.6964414
H	0.9458825	-0.4634902	4.9391861
