31
-0.00233163 (energy)
C	3.8483639	0.7323283	0.7657233
O	4.4564342	0.9395494	1.8190112
O	3.7605583	1.6835405	-0.2292293
H	4.2032507	2.5118589	0.0589718
N	1.8835920	-0.4366162	-0.2549573
C	0.7878442	0.3054946	1.7737557
H	1.6911773	0.3079097	2.3705192
H	-0.1237640	0.5983733	2.2785839
C	0.7552978	-0.0281649	0.4611400
C	-0.5351886	0.0195604	-0.3273546
H	-0.7695189	-0.9503962	-0.7838061
H	-1.3641752	0.2941529	0.3279602
H	-0.4871091	0.7586947	-1.1371139
C	3.4032615	-0.9318775	-2.0139885
C	1.9049703	-0.7546029	-1.6965301
C	3.1829710	-0.5880229	0.3865887
C	4.0201936	-1.3644030	-0.6672456
H	3.5733192	-1.6673011	-2.8060184
H	3.8327174	0.0225447	-2.3322139
H	1.3420506	-1.6766581	-1.9077405
H	1.4620999	0.0508093	-2.2926553
H	3.0967025	-1.1499466	1.3238794
H	5.0908677	-1.1523762	-0.5959727
H	3.8790332	-2.4384082	-0.5007485
C	5.4969331	-2.8876543	-5.4541890
H	4.6594102	-2.3391737	-5.9256837
O	5.6989367	-2.7849309	-4.2390122
C	6.3247394	-3.7279451	-6.3857072
H	6.7570108	-3.1006089	-7.1766798
H	7.1244341	-4.2310555	-5.8380347
H	5.6920067	-4.4745702	-6.8837167
