31
-0.00233377 (energy)
C	3.8483639	0.6269227	-0.8541691
O	4.4564342	1.6282252	-1.2411436
O	3.7605583	-0.5180907	-1.6181584
H	4.2032507	-0.3781040	-2.4839384
N	1.8835920	-0.1752662	0.4742559
C	0.7878442	1.6937597	-0.6088630
H	1.6911773	2.2810377	-0.7148684
H	-0.1237640	2.1400606	-0.9849548
C	0.7552978	0.4590250	-0.0523392
C	-0.5351886	-0.3257780	0.0375813
H	-0.7695189	-0.6068636	1.0720641
H	-1.3641752	0.2718987	-0.3466338
H	-0.4871091	-1.2515846	-0.5497105
C	3.4032615	-1.8215726	1.2674457
C	1.9049703	-1.5397205	1.0377383
C	3.1829710	0.4828247	0.5119590
C	4.0201936	-0.4201825	1.4595407
H	3.5733192	-2.4738647	2.1292312
H	3.8327174	-2.3006971	0.3827827
H	1.3420506	-1.5876089	1.9824617
H	1.4620999	-2.2666476	0.3480782
H	3.0967025	1.5034529	0.9025870
H	5.0908677	-0.3868104	1.2383586
H	3.8790332	-0.0697157	2.4883174
C	6.3874678	-2.8744297	3.9326670
H	5.6947583	-3.7062298	3.7027867
O	6.2608444	-1.7862661	3.3600602
C	7.4447903	-3.1784086	4.9567491
H	8.0597355	-4.0254848	4.6245578
H	8.0802247	-2.3055566	5.1208512
H	6.9776494	-3.4782830	5.9042025
