31
-0.00181479 (energy)
C	1.6209707	-1.9887465	-2.0333167
O	1.9116074	-1.2164876	-2.9505145
O	0.7906309	-3.0734903	-2.2238731
H	0.4631472	-3.0862899	-3.1500148
N	1.1829633	-2.1556974	0.4261193
C	0.0124685	-0.0705448	0.0399222
H	0.6267878	0.2253127	-0.8010435
H	-0.7752484	0.6146518	0.3256963
C	0.1777621	-1.2305421	0.7199457
C	-0.7354473	-1.6026383	1.8675300
H	-0.1738777	-1.7821604	2.7929951
H	-1.4480179	-0.7969596	2.0551001
H	-1.3071233	-2.5138454	1.6502070
C	2.4545644	-4.1574279	0.2680824
C	1.3647238	-3.4553359	1.1025864
C	2.1731904	-1.9047891	-0.6128159
C	3.2519159	-2.9934704	-0.3570842
H	3.0830073	-4.8134112	0.8778564
H	1.9917215	-4.7587809	-0.5198088
H	1.6893994	-3.3177890	2.1453427
H	0.4353153	-4.0351683	1.1160932
H	2.5920072	-0.8957354	-0.5227185
H	3.7886504	-3.2784506	-1.2665239
H	3.9847587	-2.5963634	0.3545212
C	2.6647919	3.2876027	2.1630018
H	2.7574206	2.9318237	3.2067566
O	2.4188855	4.4770317	1.9332175
C	2.8568895	2.2389688	1.1035002
H	2.1234856	1.4319770	1.2336146
H	2.7488186	2.6763353	0.1087098
H	3.8508872	1.7823818	1.1999892
