31
-0.00235257 (energy)
C	-2.5699068	-0.1720566	3.0493471
O	-3.0221069	0.6972580	3.7989553
O	-1.7894498	-1.2089841	3.5163732
H	-1.6363965	-1.1050531	4.4812156
N	-1.6908449	-0.6202306	0.7482736
C	-0.6081235	1.5199825	1.0863119
H	-1.3651980	1.9005644	1.7602102
H	0.2192593	2.1827620	0.8676337
C	-0.6478926	0.2843486	0.5322586
C	0.4588994	-0.2020288	-0.3775794
H	0.0753513	-0.5016900	-1.3610266
H	1.1946176	0.5904304	-0.5285250
H	0.9803412	-1.0689087	0.0478131
C	-2.9721494	-2.6152168	0.9130735
C	-1.7476075	-1.9944123	0.2115172
C	-2.8536794	-0.2686487	1.5526971
C	-3.8688671	-1.4022536	1.2386772
H	-3.4795552	-3.3518431	0.2829943
H	-2.6614413	-3.1091236	1.8383508
H	-1.8764923	-1.9882699	-0.8816549
H	-0.8319664	-2.5522249	0.4365390
H	-3.2479234	0.7136410	1.2674028
H	-4.5627887	-1.5885475	2.0633866
H	-4.4591854	-1.1077004	0.3635215
C	3.9701283	2.9663303	0.5561362
H	4.7767259	2.6984416	1.2648101
O	3.5190641	2.1161325	-0.2195679
C	3.4983762	4.3918314	0.6230296
H	4.3354173	5.0760081	0.4298685
H	2.7053299	4.5667195	-0.1070858
H	3.1286424	4.6202612	1.6314592
