31
-0.00427992 (energy)
C	2.2416960	-0.6436789	0.9105083
O	2.8703076	-0.8997505	1.9407414
O	2.8267629	-0.0124168	-0.1672904
H	3.7581234	0.2177810	0.0441908
N	-0.0000000	-0.0000000	-0.0000000
C	-0.0306956	1.4340626	1.9518171
H	0.6087297	0.7938629	2.5463109
H	-0.3796132	2.3417154	2.4272979
C	-0.3912671	1.1591825	0.6751899
C	-1.2621116	2.1113231	-0.1150093
H	-2.1731685	1.6213091	-0.4809821
H	-1.5598293	2.9540743	0.5120409
H	-0.7331424	2.5123112	-0.9889322
C	0.5137356	-1.5734661	-1.7056231
C	-0.3220343	-0.3128842	-1.4064502
C	0.7891805	-1.0359627	0.6533502
C	0.6900296	-2.2392602	-0.3246675
H	0.0222653	-2.2331146	-2.4270105
H	1.4891942	-1.2872263	-2.1095646
H	-1.3976433	-0.5098290	-1.5327528
H	-0.0533159	0.5132138	-2.0739386
H	0.3761556	-1.2839414	1.6380488
H	1.5608170	-2.8991017	-0.2725446
H	-0.1946959	-2.8298011	-0.0607413
C	5.5050696	-2.9057756	0.1495765
H	5.9618013	-2.3636711	0.9993422
O	4.5294534	-2.4263533	-0.4389296
C	6.1517324	-4.2157851	-0.2036663
H	6.1272746	-4.8938979	0.6598218
H	5.6391475	-4.6794378	-1.0491600
H	7.2094386	-4.0594014	-0.4538960
