31
-0.00229772 (energy)
C	1.7264392	1.7674095	-0.4052409
O	1.9909207	2.7808767	-1.0571911
O	2.6973890	0.8612385	-0.0330100
H	3.5677811	1.1337053	-0.3981500
N	-0.0000000	-0.0000000	-0.0000000
C	-0.2249522	0.1116552	-2.4091487
H	0.0794065	1.1480962	-2.4819425
H	-0.4778606	-0.3825200	-3.3383888
C	-0.2897304	-0.5722357	-1.2414823
C	-0.6916977	-2.0305694	-1.2092066
H	-1.5596530	-2.1993618	-0.5594088
H	-0.9504738	-2.3697283	-2.2142257
H	0.1224967	-2.6662530	-0.8386190
C	0.5837106	0.2995612	2.2843850
C	-0.0029060	-0.7207908	1.2884708
C	0.3426551	1.4101001	0.1307531
C	0.2411864	1.6683847	1.6595656
H	0.1658636	0.1832812	3.2888559
H	1.6691043	0.1785035	2.3467299
H	-1.0238538	-1.0151713	1.5760121
H	0.6061050	-1.6302557	1.2419160
H	-0.3579722	2.0396311	-0.4300735
H	0.9007388	2.4730973	1.9969178
H	-0.7891612	1.9578647	1.8956161
C	6.2461801	-1.3398289	-0.6204879
H	6.4389634	-1.1548872	0.4533902
O	5.1433561	-1.0675820	-1.1080051
C	7.3959076	-1.9246597	-1.3919655
H	7.6978966	-2.8837757	-0.9504385
H	7.1184564	-2.0731079	-2.4377000
H	8.2678047	-1.2598011	-1.3322005
