31
-0.003635 (energy)
C	-1.0095672	1.9501643	-1.3159117
O	-0.8303144	2.8958505	-2.0876963
O	-2.1710364	1.2062945	-1.3255150
H	-2.7996323	1.5748181	-1.9844576
N	-0.5381437	1.0820423	0.9846693
C	-0.9705081	3.3843505	1.6007098
H	-0.6483522	3.7953170	0.6523083
H	-1.3082291	4.0951760	2.3438993
C	-0.9776993	2.0590996	1.8817900
C	-1.4710315	1.5441588	3.2162622
H	-0.7071016	0.9468750	3.7298161
H	-1.7385118	2.3809534	3.8645572
H	-2.3592215	0.9098851	3.1015608
C	-0.1904363	-0.9865152	-0.1329351
C	-0.5806648	-0.3737050	1.2269428
C	0.0198673	1.4326240	-0.3147950
C	0.6690765	0.1073002	-0.8009212
H	0.3502150	-1.9310190	-0.0202965
H	-1.0881241	-1.1725702	-0.7297280
H	0.1316011	-0.6658692	2.0137031
H	-1.5779823	-0.7000914	1.5416139
H	0.7630178	2.2331039	-0.2216633
H	0.6984201	0.0261456	-1.8913024
H	1.7010866	0.0705947	-0.4338482
C	4.2727497	0.6559403	2.3546735
H	4.9562491	1.2657997	1.7338008
O	3.3513102	0.0248145	1.8249173
C	4.5571407	0.6673142	3.8305022
H	4.5102828	1.6945104	4.2161433
H	3.8376303	0.0420083	4.3633005
H	5.5753376	0.3032318	4.0216368
