31
-0.0010896 (energy)
C	3.4150906	1.6875563	1.1924143
O	3.9792487	1.7255901	2.2889472
O	2.9530977	2.8262257	0.5659641
H	3.1072115	3.6096541	1.1383597
N	1.9019182	0.3342624	-0.2730050
C	0.7427789	-0.0537992	1.8181363
H	1.6262633	0.0546427	2.4344470
H	-0.1825189	-0.2702200	2.3364462
C	0.7466221	0.0766202	0.4696840
C	-0.5289432	-0.0544419	-0.3335051
H	-0.4495460	-0.8366912	-1.0989178
H	-1.3615052	-0.3090651	0.3253308
H	-0.7808140	0.8816831	-0.8478710
C	3.3922853	0.9931805	-2.0031792
C	1.9434961	0.5394318	-1.7344706
C	3.2120346	0.4256992	0.3579666
C	4.1976815	0.3731110	-0.8420372
H	3.7527561	0.6651238	-2.9827293
H	3.4554698	2.0844296	-1.9606975
H	1.7125509	-0.3926316	-2.2726121
H	1.2206472	1.2977335	-2.0548708
H	3.3759049	-0.4094333	1.0489186
H	5.1366034	0.8969369	-0.6410136
H	4.4366735	-0.6760808	-1.0499170
C	2.1989873	-4.8069919	-0.4365677
H	2.1031599	-5.1800716	0.6008384
O	2.0809053	-5.5863020	-1.3887990
C	2.4728619	-3.3352773	-0.5712040
H	3.4035604	-3.0751430	-0.0494978
H	2.5517334	-3.0558441	-1.6239496
H	1.6702439	-2.7567300	-0.0948631
