31
-0.0032191 (energy)
C	0.1972594	0.3478176	-0.2851544
O	1.0657895	-0.4204233	0.1362321
O	-1.1346418	0.1976009	0.0402981
H	-1.2559992	-0.6050515	0.5936238
N	-0.4944782	1.7716087	-2.2249654
C	0.3207285	-0.1200843	-3.4993293
H	1.0415780	-0.4297356	-2.7532493
H	0.2752804	-0.7160566	-4.4017762
C	-0.5068143	0.9420042	-3.3493674
C	-1.5165902	1.3048846	-4.4161509
H	-1.3828812	2.3350102	-4.7697576
H	-1.4118994	0.6367252	-5.2732741
H	-2.5457015	1.2177375	-4.0451033
C	-1.1193911	3.3301781	-0.5429383
C	-1.4142483	2.9033135	-1.9948089
C	0.4641132	1.5808138	-1.1444143
C	0.3416897	2.8889709	-0.3149494
H	-1.2589556	4.4048135	-0.3920762
H	-1.7822532	2.7969003	0.1447026
H	-1.2154590	3.7255931	-2.6990912
H	-2.4604546	2.6029773	-2.1190614
H	1.4790358	1.4478013	-1.5367842
H	0.5883588	2.7445912	0.7408380
H	1.0403742	3.6271932	-0.7248306
C	4.9517577	-2.2326348	1.2464912
H	4.7589744	-1.3950999	1.9435944
O	6.0545816	-2.7909606	1.2385055
C	3.8020301	-2.6083385	0.3542741
H	3.5000413	-1.7464069	-0.2555813
H	4.0794813	-3.4397471	-0.2971530
H	2.9301330	-2.8890096	0.9599410
