31
-0.0036028 (energy)
C	-0.1330115	0.4438888	0.1627024
O	1.0572321	0.4327853	-0.1618004
O	-0.9309870	-0.6765042	0.0607230
H	-0.4198558	-1.4173137	-0.3330967
N	-2.2063599	1.8445906	0.2510750
C	-1.4277750	2.5736553	-1.9236291
H	-0.3802592	2.4065596	-1.7069894
H	-1.6607174	2.9574247	-2.9085749
C	-2.4266972	2.3201494	-1.0442902
C	-3.8754522	2.5442137	-1.4188043
H	-4.3727656	3.2351782	-0.7264735
H	-3.9412378	2.9663696	-2.4235500
H	-4.4450848	1.6062485	-1.4097971
C	-2.5007976	0.8376645	2.3837438
C	-3.2652079	1.5019044	1.2211842
C	-0.8611368	1.6391893	0.7717247
C	-1.0869859	1.4500952	2.2973427
H	-2.9774386	1.0234587	3.3508905
H	-2.4496448	-0.2437504	2.2270704
H	-3.7994639	2.4027256	1.5599556
H	-4.0037391	0.8196195	0.7861588
H	-0.2219079	2.5054007	0.5648945
H	-0.3184984	0.8274401	2.7643606
H	-1.0586053	2.4347836	2.7776738
C	3.8820206	-2.1952427	-2.8362169
H	4.0374540	-1.5109512	-3.6918854
O	3.6225235	-3.3873299	-3.0352185
C	4.0100668	-1.5684681	-1.4761302
H	3.2859664	-0.7499228	-1.3679221
H	3.8421581	-2.3127774	-0.6948575
H	5.0081449	-1.1264887	-1.3565163
