31
-0.00149893 (energy)
C	0.9605584	-1.4103519	1.9084615
O	1.7406670	-1.4895676	2.8609639
O	-0.2560435	-2.0601798	1.9014827
H	-0.3551335	-2.5948539	2.7196835
N	0.8018462	-1.2036282	-0.5816438
C	2.6418727	-2.7774214	-0.5142231
H	3.0108269	-2.4462804	0.4482538
H	3.1910164	-3.5793542	-0.9906724
C	1.5502821	-2.2529723	-1.1214553
C	1.0651221	-2.7818528	-2.4534695
H	1.0149127	-1.9904290	-3.2118901
H	1.7425508	-3.5568244	-2.8175667
H	0.0628258	-3.2214911	-2.3730875
C	-0.9565772	0.3203197	-0.0974952
C	-0.4245414	-0.6400106	-1.1799860
C	1.1844335	-0.5538198	0.6650586
C	0.3056057	0.7272858	0.6916010
H	-1.4748501	1.1820622	-0.5286238
H	-1.6538494	-0.2075913	0.5595762
H	-0.1992702	-0.1014900	-2.1132184
H	-1.1542435	-1.4228786	-1.4141669
H	2.2527184	-0.3079336	0.6697167
H	0.0870877	1.0689180	1.7074335
H	0.8455076	1.5299875	0.1765177
C	2.1121050	3.3065301	4.6848813
H	2.7956044	2.9458006	5.4768949
O	1.1906654	4.0807816	4.9668316
C	2.3964959	2.7910790	3.3019460
H	2.3496379	1.6939332	3.2908837
H	1.6769853	3.1964465	2.5874122
H	3.4146927	3.0678326	2.9978146
