31
-0.00320125 (energy)
C	0.4814249	0.0638518	0.0731740
O	0.2084793	-1.1341538	-0.0381302
O	-0.4840567	1.0458259	-0.0043985
H	-1.3586322	0.6415541	-0.1963094
N	2.2150361	1.8090381	-0.3931583
C	2.4150207	0.6018459	-2.4835556
H	2.1081119	-0.3502896	-2.0695652
H	2.6592324	0.6123736	-3.5380266
C	2.4929957	1.7452479	-1.7611294
C	2.8978316	3.0529018	-2.4057268
H	3.7727141	3.4958538	-1.9133360
H	3.1468599	2.8908929	-3.4563434
H	2.0886055	3.7928785	-2.3618089
C	1.6543088	2.5959155	1.7783110
C	2.2324486	3.0410942	0.4201310
C	1.8712693	0.6187395	0.3735910
C	1.9879913	1.0909180	1.8492935
H	2.0826603	3.1579635	2.6135929
H	0.5698272	2.7388968	1.7871087
H	3.2568125	3.4282415	0.5317988
H	1.6245879	3.8313589	-0.0339342
H	2.5649902	-0.2024423	0.1588209
H	1.3305298	0.5352376	2.5240838
H	3.0202009	0.9357456	2.1833587
C	0.8233969	-5.2351632	0.5120643
H	1.0334898	-5.4343033	-0.5560120
O	1.6902869	-5.4544388	1.3655466
C	-0.5484724	-4.6991839	0.8116957
H	-1.3141381	-5.4035667	0.4600598
H	-0.6679123	-4.5325063	1.8843231
H	-0.7122220	-3.7573896	0.2713044
