31
-0.0032 (energy)
C	-2.4315292	0.0921769	0.5896763
O	-3.5261670	0.5582356	0.2630838
O	-2.0881818	-0.1170438	1.9090642
H	-2.8106673	0.1952355	2.4969792
N	-0.0000000	-0.0000000	-0.0000000
C	-0.3450480	2.3531595	-0.4589663
H	-1.3921223	2.2448712	-0.7120517
H	0.0631300	3.3540951	-0.5153382
C	0.4462081	1.3219891	-0.0769336
C	1.8958125	1.5434408	0.2958439
H	2.5714670	0.9328254	-0.3162952
H	2.1633199	2.5920858	0.1514803
H	2.0866002	1.2888688	1.3461459
C	-0.2038071	-2.3016983	0.5563431
C	0.8099580	-1.1437319	0.4642739
C	-1.3542944	-0.3736281	-0.3862381
C	-1.2939342	-1.9240651	-0.4685550
H	0.2553441	-3.2707172	0.3389461
H	-0.6338820	-2.3420744	1.5613440
H	1.6147413	-1.3757862	-0.2499732
H	1.2741054	-0.9399573	1.4354749
H	-1.6252272	0.0693611	-1.3516760
H	-2.2592922	-2.3960291	-0.2643190
H	-0.9901507	-2.2067974	-1.4829084
C	2.2706921	0.4047905	4.6145649
H	2.4247900	1.4912207	4.4713651
O	2.7006974	-0.3976487	3.7783838
C	1.5256215	0.0166394	5.8608741
H	0.5324468	0.4852480	5.8684188
H	1.4199104	-1.0686356	5.9207080
H	2.0566766	0.3852802	6.7485101
