31
-0.00316511 (energy)
C	2.3138330	2.3093034	-0.1741559
O	2.3813002	2.6769029	1.0016095
O	1.9102540	3.1565553	-1.1849641
H	1.6618358	4.0302905	-0.8107675
N	1.8124050	0.3693211	-1.6753511
C	0.0331067	-0.0044668	-0.0748986
H	0.5606720	0.4464801	0.7560436
H	-0.9548682	-0.3932944	0.1357616
C	0.5387596	-0.0894314	-1.3288699
C	-0.2622020	-0.7029350	-2.4564472
H	0.2710038	-1.5387330	-2.9267745
H	-1.2143113	-1.0795386	-2.0773495
H	-0.4795782	0.0303075	-3.2434950
C	3.6909362	1.1500118	-2.9043802
C	2.3807773	0.3482820	-3.0377809
C	2.7201056	0.9284986	-0.6822293
C	4.0852820	0.9743753	-1.4228124
H	4.4662151	0.7908247	-3.5877586
H	3.5053501	2.2065155	-3.1188077
H	2.5776130	-0.6826535	-3.3695972
H	1.7019184	0.8087832	-3.7639196
H	2.7684402	0.2929979	0.2096883
H	4.7396483	1.7694630	-1.0540055
H	4.5979106	0.0183907	-1.2664792
C	2.8746006	-3.5434410	-0.5258779
H	2.4106615	-3.8432768	0.4329974
O	3.3116930	-2.3962999	-0.6708936
C	2.9205352	-4.6108282	-1.5830689
H	1.9044934	-4.9583595	-1.8131299
H	3.3924661	-4.2295080	-2.4910627
H	3.4779753	-5.4825850	-1.2154903
