31
-0.00416907 (energy)
C	-0.3773743	0.1421034	0.2117838
O	-0.5438658	0.2943996	-0.9954245
O	0.7850574	-0.3700060	0.7292337
H	0.6654474	-0.4920736	1.7029657
N	-1.2082490	-0.0999883	2.5540656
C	-2.0912939	-2.1813391	1.6506766
H	-2.2148778	-1.7949736	0.6469479
H	-2.3342106	-3.2266505	1.7936171
C	-1.6322171	-1.4499470	2.6877855
C	-1.4623692	-2.0507410	4.0658333
H	-2.1726162	-1.6346992	4.7915938
H	-1.6271361	-3.1295216	4.0266960
H	-0.4534164	-1.8726256	4.4585146
C	-1.7137835	2.1921504	3.0563574
C	-1.2733230	0.8620201	3.6989508
C	-1.3934744	0.5956371	1.2631563
C	-1.1889896	2.0933798	1.6119598
H	-2.8079565	2.2637095	3.0545773
H	-1.3211764	3.0624897	3.5902944
H	-1.9840303	0.5250966	4.4577288
H	-0.2901650	0.9554206	4.1774234
H	-2.3970934	0.4274216	0.8506064
H	-0.1212581	2.3419777	1.5741118
H	-1.7114387	2.7434498	0.9070760
C	3.2092973	1.5996283	-2.9106572
H	3.0003722	0.8966155	-3.7393346
O	3.2189369	2.8180107	-3.1191366
C	3.4675132	0.9637252	-1.5734849
H	4.3254663	0.2813500	-1.6392686
H	3.6632695	1.7278116	-0.8182180
H	2.6033055	0.3578872	-1.2703042
