31
-0.00414764 (energy)
C	-1.8644168	-0.3674672	-1.6199269
O	-2.8553712	-0.0002911	-2.2455917
O	-1.5764738	-1.6937987	-1.4219590
H	-0.7953102	-1.7564450	-0.8192817
N	0.0000000	0.0000000	-0.0000000
C	-1.8599030	0.1523703	1.5637920
H	-2.5569721	0.5409329	0.8322620
H	-2.2591575	-0.0331482	2.5528801
C	-0.5680149	-0.1316736	1.2961634
C	0.3549624	-0.6915494	2.3561018
H	1.1374231	0.0214596	2.6453133
H	-0.2135537	-0.9375998	3.2553772
H	0.8571569	-1.6030987	2.0085561
C	1.5110089	1.2540970	-1.3805269
C	1.4593107	0.2694209	-0.1956562
C	-0.8022026	0.5980211	-1.0878840
C	0.2420808	0.9235271	-2.1879883
H	1.4643261	2.2861113	-1.0129597
H	2.4266187	1.1485659	-1.9697988
H	1.9059170	0.6976077	0.7052129
H	1.9934040	-0.6612289	-0.4256444
H	-1.3165377	1.5109555	-0.7596231
H	0.4073137	0.0404228	-2.8173601
H	-0.0958159	1.7379006	-2.8322139
C	4.5238660	-3.6947465	0.0688893
H	5.5588765	-3.3080809	0.0070363
O	3.5705349	-2.9091996	0.1145844
C	4.3937263	-5.1919617	0.0909849
H	4.9425818	-5.6060665	0.9473270
H	3.3431153	-5.4835006	0.1526166
H	4.8441440	-5.6234913	-0.8127404
