31
-0.00405527 (energy)
C	-2.4694950	-0.1469171	-0.3394919
O	-3.6307797	-0.0998893	0.0573351
O	-2.1216667	-0.7811283	-1.5048456
H	-1.1358671	-0.7774252	-1.5793213
N	0.0000000	0.0000000	-0.0000000
C	-0.4195823	-1.9966092	1.3286850
H	-1.4237866	-1.7050583	1.6090316
H	-0.0896554	-2.9677964	1.6751820
C	0.3980331	-1.2419268	0.5649832
C	1.7863900	-1.7112485	0.1894573
H	2.5716913	-1.1110382	0.6662376
H	1.9289244	-2.7473416	0.5035315
H	1.9476953	-1.6568997	-0.8944875
C	0.2701144	2.3840432	0.0716784
C	0.9921315	1.0768665	-0.3106288
C	-1.3138012	0.5741656	0.3590407
C	-1.2209670	2.0480647	-0.1160535
H	0.4706211	2.6302142	1.1212189
H	0.5927356	3.2319017	-0.5396898
H	1.9133193	0.9419233	0.2617083
H	1.2534371	1.0614329	-1.3763401
H	-1.4968027	0.5265449	1.4407004
H	-1.4989437	2.1160269	-1.1750125
H	-1.8939111	2.6945427	0.4510598
C	5.4740943	-0.6880634	2.6740435
H	5.8513096	-1.5128519	2.0399966
O	4.5572225	0.0353822	2.2690932
C	6.1491626	-0.5383508	4.0085647
H	7.2255971	-0.3702549	3.8704363
H	5.7158097	0.2955600	4.5647794
H	6.0450621	-1.4638547	4.5903026
