31
-0.00439507 (energy)
C	1.8644168	1.5866313	-0.4917276
O	2.8553713	1.9448848	-1.1225438
O	1.5764739	2.0783519	0.7558931
H	0.7953102	1.5877413	1.1114850
N	0.0000000	0.0000000	-0.0000000
C	1.8599030	-1.4304688	0.6499397
H	2.5569720	-0.9912266	-0.0523305
H	2.2591574	-2.1942849	1.3051474
C	0.5680148	-1.0566736	0.7621145
C	-0.3549625	-1.6946692	1.7769504
H	-1.1374233	-2.3016382	1.3040722
H	0.2135535	-2.3504393	2.4396740
H	-0.8571571	-0.9379111	2.3926023
C	-1.5110088	0.5685228	-1.7763434
C	-1.4593107	0.0347328	-0.3311535
C	0.8022027	0.6431245	-1.0618435
C	-0.2420807	1.4330898	-1.8937921
H	-1.4643261	-0.2658069	-2.4863103
H	-2.4266186	1.1316128	-1.9795868
H	-1.9059170	-0.9595361	-0.2515395
H	-1.9934040	0.6992335	0.3598187
H	1.3165377	-0.0976250	-1.6883374
H	-0.4073136	2.4196939	-1.4436874
H	0.0958161	1.5838186	-2.9211731
C	0.5444270	-1.5436339	-5.3682392
H	1.3665453	-2.0972743	-5.8603639
O	0.7201553	-1.0319465	-4.2567953
C	-0.7427060	-1.4762350	-6.1414300
H	-1.1147121	-2.4893727	-6.3444337
H	-1.4946647	-0.9139688	-5.5837638
H	-0.5731642	-0.9997172	-7.1161093
