31
-0.00404735 (energy)
C	0.4730527	1.0588523	2.5427157
O	-0.0364349	0.8406748	3.6386565
O	1.7718604	1.4800811	2.4126283
H	1.9398803	1.6821727	1.4595861
N	0.3534250	1.5513550	0.0976440
C	-0.5726812	3.6459138	0.9241140
H	-1.0034670	3.2053039	1.8142314
H	-0.6790372	4.7185074	0.8223897
C	0.0963754	2.9446473	-0.0149651
C	0.6937704	3.6193266	-1.2301788
H	0.1831724	3.3327857	-2.1583243
H	0.6139887	4.7040645	-1.1330911
H	1.7540678	3.3634103	-1.3492826
C	-0.1782532	-0.6334441	-0.7424349
C	0.5322795	0.6843921	-1.1093536
C	-0.2421073	0.7903571	1.2160685
C	-0.0721856	-0.6924172	0.7927265
H	-1.2312644	-0.5887195	-1.0449336
H	0.2750333	-1.5008159	-1.2312264
H	0.0924391	1.1470842	-1.9963839
H	1.5988731	0.5212573	-1.3094146
H	-1.3036753	1.0344943	1.3546878
H	0.9181020	-1.0546882	1.0950080
H	-0.8226064	-1.3313945	1.2628134
C	5.1109539	-1.3314520	-1.4579456
H	5.2906248	-1.9369290	-0.5492659
O	4.1952919	-0.5012986	-1.4784517
C	6.0401782	-1.6010257	-2.6081413
H	5.9746789	-2.6556720	-2.9072697
H	5.7915659	-0.9622266	-3.4582615
H	7.0798844	-1.4220394	-2.3035294
