31
-0.00492341 (energy)
C	0.3039360	-2.7573072	0.3394554
O	0.9054908	-3.4276707	1.1743266
O	-0.8140231	-3.2243118	-0.3034537
H	-1.0750307	-2.5655131	-0.9928159
N	0.1440958	-0.8922053	-1.3131459
C	1.7760901	-2.2645976	-2.4883206
H	2.2026075	-2.6842434	-1.5860996
H	2.1763365	-2.6354386	-3.4234121
C	0.7790768	-1.3551129	-2.4974323
C	0.2097341	-0.8182119	-3.7921924
H	0.4459441	0.2428963	-3.9422724
H	0.6226047	-1.3694317	-4.6396250
H	-0.8827895	-0.9158505	-3.8199145
C	-0.1470857	0.9644490	0.1801089
C	-0.4871740	0.4628578	-1.2372564
C	0.6695687	-1.3091085	0.0039417
C	-0.0016962	-0.3295485	1.0022288
H	0.8039382	1.5100817	0.1668096
H	-0.9135378	1.6351823	0.5793425
H	-0.0885018	1.1277464	-2.0075486
H	-1.5719768	0.3891571	-1.3856827
H	1.7631346	-1.2221281	0.0518265
H	-0.9878730	-0.7120097	1.2928534
H	0.5945944	-0.2115192	1.9093736
C	3.6676477	-1.3105552	3.9076943
H	4.6847020	-1.6834659	3.6815950
O	3.0939336	-0.5554880	3.1147644
C	3.0790929	-1.7858808	5.2064425
H	3.7235400	-1.4882315	6.0443803
H	2.0787605	-1.3710821	5.3473462
H	3.0290388	-2.8827596	5.2192801
