31
-0.00389366 (energy)
C	-2.2372495	0.9106746	1.4056090
O	-2.5023466	0.9512582	2.6040838
O	-2.7579824	1.8116723	0.5121337
H	-2.4902347	1.5371102	-0.3990677
N	-1.4325538	-0.2535173	-0.6516629
C	-3.4650774	-1.5440628	-0.2893898
H	-3.4527870	-1.4254280	0.7866201
H	-4.3113008	-2.0790085	-0.7015251
C	-2.5207637	-1.0428207	-1.1129848
C	-2.6015371	-1.2246877	-2.6127240
H	-1.8114687	-1.8833173	-2.9951751
H	-3.5606284	-1.6704476	-2.8845502
H	-2.5087458	-0.2657026	-3.1377449
C	0.9367757	-0.1768269	-0.2746249
C	-0.1298760	-0.2032161	-1.3871607
C	-1.2308259	-0.0718733	0.8012519
C	0.2127342	0.4853713	0.9122645
H	1.2304365	-1.2001532	-0.0121275
H	1.8385002	0.3646732	-0.5752744
H	-0.0113369	-1.0716724	-2.0399229
H	-0.0774447	0.6968917	-2.0127134
H	-1.3229602	-1.0204802	1.3465970
H	0.2008975	1.5758676	0.7941048
H	0.6565346	0.2565303	1.8833866
C	3.8465580	2.1651768	2.1595133
H	4.4176294	2.7213188	1.3919415
O	3.3303193	1.0771915	1.8805906
C	3.7623529	2.8257474	3.5069679
H	3.2951666	3.8152484	3.4138462
H	3.1836730	2.2102460	4.1989681
H	4.7702109	2.9880011	3.9115780
