31
-0.00397221 (energy)
C	-2.0729600	0.7375949	-1.7231195
O	-2.5150003	1.8306674	-2.0667156
O	-2.1426216	-0.3656788	-2.5350259
H	-1.8165212	-1.1480526	-2.0261929
N	-1.3098106	-0.9085617	-0.0075973
C	-3.6639676	-0.8248816	0.6079059
H	-3.8012876	0.2000096	0.2873380
H	-4.5471280	-1.3338731	0.9726958
C	-2.4872929	-1.4826095	0.5437858
C	-2.3605932	-2.9227781	0.9895202
H	-1.7478536	-3.0260537	1.8940390
H	-3.3473924	-3.3336182	1.2128702
H	-1.8995643	-3.5435783	0.2110800
C	0.8748690	-0.0344137	0.4665353
C	0.0549827	-1.3392870	0.4308905
C	-1.3149089	0.5130240	-0.4122179
C	0.1876644	0.8595028	-0.5823269
H	0.8028228	0.4269125	1.4586673
H	1.9340183	-0.2022791	0.2503328
H	0.0207669	-1.8217692	1.4108938
H	0.4778382	-2.0577688	-0.2827175
H	-1.7757220	1.1521365	0.3525903
H	0.5197511	0.5900730	-1.5924803
H	0.3708463	1.9266719	-0.4409068
C	5.2823403	0.9977553	-0.8591516
H	4.7218213	1.6873807	-1.5185590
O	4.6742720	0.2034333	-0.1329853
C	6.7794080	1.1129427	-0.9269618
H	7.0919140	2.1325341	-0.6646254
H	7.2489546	0.3987522	-0.2472305
H	7.1261672	0.9292404	-1.9525469
