31
-0.00397312 (energy)
C	0.3720973	0.2422435	-0.1015815
O	-0.5901300	1.0051188	-0.1217118
O	0.2390062	-1.0928790	0.1830100
H	1.1420879	-1.4915337	0.2366673
N	2.8160102	-0.2445170	0.0584161
C	2.4751745	0.5920140	2.3193779
H	1.6677120	1.2587463	2.0446148
H	2.7204230	0.5472893	3.3729288
C	3.1437990	-0.1831898	1.4400137
C	4.2522993	-1.1109305	1.8864905
H	5.2359500	-0.7903056	1.5205654
H	4.3007888	-1.1384628	2.9770583
H	4.0878950	-2.1338631	1.5252569
C	3.5037751	0.3373325	-2.1664867
C	3.8400470	-0.5857124	-0.9785946
C	1.7906627	0.6698987	-0.4867044
C	1.9904931	0.5838279	-2.0227288
H	4.0493200	1.2838208	-2.0722583
H	3.7698746	-0.1092897	-3.1290038
H	4.8525216	-0.4117039	-0.6057911
H	3.7628374	-1.6435999	-1.2599699
H	1.9351935	1.6997846	-0.1342974
H	1.4238501	-0.2650017	-2.4248332
H	1.6412705	1.4893792	-2.5231542
C	3.4470044	4.6301153	1.2274484
H	3.4210056	4.2358806	2.2611244
O	3.6550883	3.8664338	0.2779729
C	3.2166495	6.1093870	1.0941446
H	3.9726157	6.6624076	1.6674946
H	3.2591684	6.4098993	0.0451159
H	2.2392761	6.3788419	1.5159843
