31
-0.00388548 (energy)
C	-1.0442653	-1.6726302	1.9804465
O	-1.6653310	-2.7308316	1.9279820
O	-0.2419972	-1.3493567	3.0449266
H	0.0805169	-0.4229522	2.9219617
N	-0.6242364	0.6911153	1.2937676
C	-2.7652761	1.0226506	2.4045939
H	-3.1360808	0.0314813	2.1763181
H	-3.4111371	1.6470432	3.0088404
C	-1.5605605	1.4852838	2.0097370
C	-1.0879413	2.8750294	2.3758728
H	-1.0212731	3.5355566	1.5020712
H	-1.7841025	3.3333179	3.0814072
H	-0.0949661	2.8502183	2.8420210
C	0.4546837	0.3262455	-0.8191837
C	0.3833082	1.3029245	0.3712708
C	-1.0162702	-0.6579677	0.8344916
C	0.0753734	-1.0327299	-0.2021274
H	-0.2796454	0.6105792	-1.5822390
H	1.4418560	0.3158655	-1.2904613
H	0.0738899	2.3024613	0.0557509
H	1.3554770	1.3946151	0.8720102
H	-2.0099338	-0.6559470	0.3671872
H	0.9384919	-1.4756487	0.3098622
H	-0.2948655	-1.7593258	-0.9283412
C	4.5993901	3.2354616	-0.2958900
H	5.6344007	2.8487961	-0.2340371
O	3.6460590	2.4499147	-0.3415850
C	4.4692504	4.7326769	-0.3179857
H	5.0181058	5.1467816	-1.1743278
H	3.4186395	5.0242158	-0.3796173
H	4.9196683	5.1642064	0.5857396
