31
-0.00569644 (energy)
C	1.2715640	2.1490316	0.0057962
O	1.7156460	3.1533406	0.5557233
O	1.1266044	2.0662316	-1.3555960
H	0.6687309	1.2164374	-1.5690503
N	0.0000000	0.0000000	-0.0000000
C	-1.8630034	1.5099371	0.4209632
H	-1.2636317	2.2436128	0.9448869
H	-2.9063948	1.7602235	0.2767150
C	-1.3751066	0.3520950	-0.0716211
C	-2.2586687	-0.6270899	-0.8127906
H	-2.4076136	-1.5592273	-0.2531432
H	-3.2430038	-0.1867756	-0.9849975
H	-1.8291978	-0.8964188	-1.7858919
C	1.6219375	-1.4471339	1.0182749
C	0.4460904	-1.4286324	0.0216708
C	0.9320555	0.8602071	0.7589243
C	2.1967846	-0.0209818	0.9340744
H	1.2518480	-1.6439239	2.0315102
H	2.3612510	-2.2160380	0.7755374
H	-0.3635401	-2.0901834	0.3398139
H	0.7653290	-1.7456849	-0.9792406
H	0.5194683	1.1443679	1.7360473
H	2.8452873	0.0797459	0.0551079
H	2.7725478	0.2754807	1.8132853
C	0.4773610	0.1088824	-5.2028302
H	1.3297285	0.2918724	-5.8844219
O	0.6809990	-0.1476883	-4.0108926
C	-0.8843353	0.1975458	-5.8329097
H	-0.9685327	-0.5272934	-6.6536202
H	-1.6621209	0.0041684	-5.0911338
H	-1.0328419	1.1927441	-6.2726135
