31
-0.00482185 (energy)
C	-0.3720973	0.1421034	-0.2209238
O	0.5901299	0.2943997	-0.9687138
O	-0.2390062	-0.3700060	1.0444964
H	-1.1420878	-0.4920738	1.4277772
N	-2.8160102	-0.0999885	0.2306586
C	-2.4751746	-2.1813393	-0.9857754
H	-1.6677121	-1.7949736	-1.5946665
H	-2.7204230	-3.2266507	-1.1246773
C	-3.1437990	-1.4499473	-0.0696488
C	-4.2522993	-2.0507414	0.7664677
H	-5.2359499	-1.6346997	0.5142561
H	-4.3007888	-3.1295220	0.6042067
H	-4.0878949	-1.8726261	1.8365872
C	-3.5037751	2.1921500	0.0439988
C	-3.8400469	0.8620197	0.7467454
C	-1.7906627	0.5956369	-0.5752060
C	-1.9904931	2.0933797	-0.2237151
H	-4.0493200	2.2637091	-0.9044728
H	-3.7698746	3.0624893	0.6509751
H	-4.8525216	0.5250962	0.5106439
H	-3.7628373	0.9554202	1.8374215
H	-1.9351936	0.4274215	-1.6506405
H	-1.4238500	2.3419775	0.6820435
H	-1.6412705	2.7434497	-1.0286112
C	4.5353239	-1.2274361	1.3892922
H	4.4351693	-2.3171143	1.2245094
O	5.3922414	-0.7946008	2.1679822
C	3.5776942	-0.3661241	0.6145890
H	2.5423014	-0.6343943	0.8636664
H	3.7470747	0.6895011	0.8371704
H	3.6997950	-0.5404326	-0.4626859
