31
-0.00377599 (energy)
C	-1.8644168	0.7597727	-1.4771394
O	-2.8553712	1.4432155	-1.7204102
O	-1.5764738	-0.3835075	-2.1780366
H	-0.7953102	-0.8188908	-1.7566273
N	0.0000000	0.0000000	-0.0000000
C	-1.8599030	-0.8884637	1.2958759
H	-2.5569721	-0.1205890	0.9852546
H	-2.2591575	-1.6663527	1.9343124
C	-0.5680149	-0.9340256	0.9082806
C	0.3549624	-2.0442306	1.3603594
H	1.1374231	-1.6839356	2.0402216
H	-0.2135537	-2.8107592	1.8910861
H	0.8571569	-2.5191199	0.5081913
C	1.5110089	1.8480796	-0.2514270
C	1.4593107	0.3321538	0.0232991
C	-0.8022026	1.1573891	-0.4489669
C	0.2420808	2.1138745	-1.0824645
H	1.4643261	2.4023808	0.6935118
H	2.4266187	2.1460148	-0.7706695
H	1.9059170	0.0810964	0.9886380
H	1.9934040	-0.2329318	-0.7510923
H	-1.3165377	1.6457354	0.3893184
H	0.4073137	1.8419298	-2.1322398
H	-0.0958159	3.1518211	-1.0525008
C	5.6856058	0.3374144	0.2276268
H	5.4845422	1.2094264	0.8785886
O	4.7464490	-0.3066620	-0.2531666
C	7.1374765	0.0258706	-0.0049458
H	7.6405978	-0.1656005	0.9522661
H	7.2421497	-0.8451144	-0.6553346
H	7.6406643	0.8891691	-0.4602819
