31
-0.00356075 (energy)
C	-1.5127992	0.8328224	-3.5925517
O	-1.6787757	1.6905874	-4.4556604
O	-2.5612232	0.2784609	-2.9035319
H	-2.1945693	-0.3122338	-2.2006765
N	-0.1194429	-0.3995360	-1.9266898
C	-0.1393191	1.7738836	-0.8295328
H	-0.2210637	2.3358371	-1.7512424
H	-0.1553747	2.3520534	0.0856603
C	-0.0543350	0.4281942	-0.7731551
C	0.0388158	-0.3040511	0.5474346
H	1.0173679	-0.7793744	0.6915650
H	-0.1120372	0.3937376	1.3737406
H	-0.7205466	-1.0925129	0.6223097
C	1.1096112	-1.8440018	-3.3979839
C	0.5397644	-1.7426996	-1.9692814
C	-0.1470598	0.2225625	-3.2671676
C	0.1722875	-0.9502672	-4.2311174
H	2.1305683	-1.4448561	-3.4238199
H	1.1430323	-2.8755554	-3.7606128
H	1.3260689	-1.8206187	-1.2142846
H	-0.1932096	-2.5357282	-1.7740530
H	0.6041637	1.0177748	-3.3622765
H	-0.7501469	-1.4891516	-4.4801202
H	0.6157947	-0.5931340	-5.1628697
C	4.7239919	-0.4185732	1.5743524
H	4.9036628	0.6711050	1.6443711
O	3.8083299	-0.8514088	0.8656715
C	5.6532163	-1.2798851	2.3829080
H	5.5877168	-1.0116147	3.4458227
H	5.4046039	-2.3355103	2.2547517
H	6.6929224	-1.1055765	2.0755955
