31
-0.00368771 (energy)
C	0.4706894	1.2770038	-2.0935515
O	0.5170538	2.3109968	-2.7545918
O	0.4432157	0.0370599	-2.6792494
H	0.3118638	-0.6394773	-1.9704440
N	0.0000000	0.0000000	-0.0000000
C	-2.2842352	0.6494822	-0.5369769
H	-1.9992461	1.5702854	-1.0298512
H	-3.3404378	0.4117331	-0.5422541
C	-1.4065179	-0.2012497	0.0349922
C	-1.8629628	-1.4845912	0.6934070
H	-1.7221969	-1.4669181	1.7815902
H	-2.9260161	-1.6456222	0.5025298
H	-1.3108821	-2.3507363	0.3075196
C	1.9510758	0.5632530	1.2797699
C	0.8990986	-0.5430839	1.0663669
C	0.5410338	1.2543124	-0.5644756
C	2.0158938	1.2759095	-0.0838166
H	1.6094118	1.2616749	2.0529523
H	2.9192051	0.1621071	1.5936600
H	0.3422262	-0.7532200	1.9829378
H	1.3653210	-1.4794002	0.7343911
H	-0.0004160	2.1344748	-0.1931386
H	2.6435623	0.7097084	-0.7829106
H	2.4048611	2.2949031	-0.0312655
C	5.3762234	-1.9042548	1.1151689
H	5.5558944	-1.1145200	1.8692380
O	4.4605614	-1.7802948	0.2940666
C	6.3054478	-3.0837874	1.1809178
H	6.2399484	-3.5615088	2.1675986
H	6.0568354	-3.8100661	0.4042016
H	7.3451539	-2.7527226	1.0575461
