31
-0.00383546 (energy)
C	-1.9190690	-0.8770773	1.3353482
O	-2.7073059	-0.8286629	2.2758821
O	-1.6741080	-2.0381927	0.6475525
H	-0.9449392	-1.8697399	0.0015668
N	0.0000000	0.0000000	-0.0000000
C	1.2170659	-0.5761543	2.0284719
H	0.3756047	-0.4023680	2.6870794
H	2.1217978	-0.9437063	2.4958929
C	1.1778371	-0.3920345	0.6921179
C	2.3819459	-0.6702157	-0.1805530
H	2.8026365	0.2461686	-0.6135995
H	3.1688375	-1.1463263	0.4081470
H	2.1268853	-1.3369995	-1.0137715
C	-1.0971697	1.7694009	-1.1946550
C	0.0607228	0.7563240	-1.2902494
C	-1.2106575	0.3563657	0.7693905
C	-2.1127109	1.0793174	-0.2651876
H	-0.7432930	2.7016230	-0.7385063
H	-1.5184954	2.0136311	-2.1742242
H	1.0254580	1.2556121	-1.4100977
H	-0.0730272	0.0753540	-2.1403377
H	-0.9766969	1.0215072	1.6111709
H	-2.7038288	0.3425044	-0.8228345
H	-2.8058244	1.7690278	0.2209178
C	3.1617322	1.0982061	-4.2008240
H	3.2575596	0.0132462	-4.3964303
O	3.2798142	1.5332078	-3.0498061
C	2.8878576	1.9506617	-5.4080483
H	1.9571591	1.6289179	-5.8941842
H	2.8089861	3.0020827	-5.1236719
H	3.6904756	1.8274118	-6.1472554
