31
-0.00348644 (energy)
C	1.7690241	-0.3521328	-2.1346911
O	1.6095096	-0.3448298	-3.3523804
O	2.9566448	0.0103792	-1.5521108
H	2.8915521	-0.1592690	-0.5803375
N	1.1657149	-1.0725108	0.1788167
C	1.8878776	-3.2313540	-0.6847681
H	1.5986802	-3.0176881	-1.7059116
H	2.3707917	-4.1852537	-0.5145159
C	1.7082162	-2.3758265	0.3433737
C	2.1508592	-2.7226781	1.7478588
H	1.3019095	-2.8646769	2.4285869
H	2.7247878	-3.6516572	1.7406984
H	2.7823539	-1.9334963	2.1748436
C	-0.7277834	0.3478546	0.5775498
C	0.4321913	-0.3803838	1.2848728
C	0.6453402	-0.6632550	-1.1426861
C	-0.1859682	0.6110452	-0.8397066
H	-1.6067611	-0.3058474	0.5284553
H	-1.0204806	1.2658453	1.0955662
H	0.0677350	-1.0965962	2.0255331
H	1.0941387	0.3276001	1.7995026
H	0.0125873	-1.4414548	-1.5896466
H	0.4681219	1.4916364	-0.8427358
H	-0.9654407	0.7677888	-1.5882113
C	6.6450604	-1.7322964	1.6286794
H	7.1353992	-1.4631113	0.6738547
O	5.4999490	-1.3347485	1.8709350
C	7.4632890	-2.5851376	2.5572491
H	8.4013956	-2.0738394	2.8113691
H	6.9041860	-2.8014299	3.4700461
H	7.7390819	-3.5254713	2.0617451
