31
-0.00354144 (energy)
C	-1.8644168	-0.7597728	1.4771393
O	-2.8553712	-1.4432156	1.7204101
O	-1.5764738	0.3835074	2.1780366
H	-0.7953102	0.8188907	1.7566274
N	0.0000000	0.0000000	-0.0000000
C	-1.8599030	0.8884638	-1.2958759
H	-2.5569721	0.1205891	-0.9852546
H	-2.2591575	1.6663528	-1.9343123
C	-0.5680149	0.9340257	-0.9082806
C	0.3549624	2.0442307	-1.3603593
H	1.1374231	1.6839357	-2.0402215
H	-0.2135537	2.8107593	-1.8910860
H	0.8571569	2.5191199	-0.5081912
C	1.5110089	-1.8480796	0.2514269
C	1.4593107	-0.3321538	-0.0232991
C	-0.8022026	-1.1573891	0.4489668
C	0.2420808	-2.1138746	1.0824644
H	1.4643261	-2.4023807	-0.6935120
H	2.4266187	-2.1460148	0.7706694
H	1.9059170	-0.0810964	-0.9886380
H	1.9934040	0.2329317	0.7510923
H	-1.3165377	-1.6457354	-0.3893185
H	0.4073137	-1.8419299	2.1322397
H	-0.0958159	-3.1518211	1.0525006
C	5.8501201	-1.0977825	1.9380276
H	5.7358547	-0.1519975	2.5010703
O	5.1013120	-1.3469500	0.9866002
C	6.9481148	-2.0058815	2.4164018
H	6.7830820	-2.2764503	3.4678786
H	6.9886831	-2.9108465	1.8065088
H	7.9144824	-1.4863936	2.3708033
