31
-0.00388317 (energy)
C	-2.4694950	-0.1469173	-0.3394918
O	-3.6307797	-0.0998896	0.0573353
O	-2.1216667	-0.7811285	-1.5048455
H	-1.1358671	-0.7774253	-1.5793212
N	0.0000000	0.0000000	-0.0000000
C	-0.4195820	-1.9966093	1.3286850
H	-1.4237864	-1.7050584	1.6090316
H	-0.0896550	-2.9677964	1.6751820
C	0.3980333	-1.2419268	0.5649832
C	1.7863902	-1.7112483	0.1894572
H	2.5716914	-1.1110380	0.6662375
H	1.9289247	-2.7473414	0.5035314
H	1.9476954	-1.6568995	-0.8944876
C	0.2701142	2.3840432	0.0716784
C	0.9921314	1.0768666	-0.3106289
C	-1.3138012	0.5741655	0.3590408
C	-1.2209672	2.0480646	-0.1160535
H	0.4706209	2.6302143	1.1212189
H	0.5927353	3.2319018	-0.5396898
H	1.9133192	0.9419235	0.2617081
H	1.2534369	1.0614330	-1.3763402
H	-1.4968026	0.5265447	1.4407005
H	-1.4989440	2.1160268	-1.1750124
H	-1.8939114	2.6945425	0.4510599
C	3.5187626	2.0782302	3.1404964
H	2.9127770	1.2717076	3.5953433
O	3.8719184	1.9967021	1.9586985
C	3.8550823	3.2256452	4.0512135
H	4.4096348	2.8626713	4.9268666
H	4.4519385	3.9714941	3.5220171
H	2.9346020	3.6900013	4.4292382
