31
-0.00295829 (energy)
C	3.8676407	0.0046097	-0.9643220
O	4.6981030	-0.1750182	-1.8510754
O	3.7951440	-0.8028817	0.1420051
H	3.0031263	-0.5368893	0.6705097
N	1.7282838	0.9444669	-0.0839439
C	0.7880560	-0.6322330	-1.6832845
H	1.6271522	-0.5754064	-2.3649814
H	0.0035033	-1.3296499	-1.9482436
C	0.6967395	0.0799376	-0.5405880
C	-0.4935002	-0.0559086	0.3833669
H	-1.1075968	0.8532568	0.4073160
H	-1.1336757	-0.8757438	0.0509619
H	-0.1786628	-0.2636214	1.4137272
C	2.3879349	3.2255794	0.2669805
C	1.4355656	2.1288970	0.7831768
C	2.9029800	1.1931488	-0.9458580
C	3.5781115	2.4364766	-0.3094266
H	1.8998309	3.8029117	-0.5272363
H	2.6852701	3.9234450	1.0552031
H	0.3885669	2.4306617	0.6989260
H	1.6329798	1.8911444	1.8361539
H	2.6097351	1.4001436	-1.9835985
H	4.2549714	2.1219145	0.4944361
H	4.1632790	2.9940010	-1.0436954
C	3.4152826	-4.3501030	-4.4997695
H	3.2964679	-3.6514062	-5.3496452
O	3.5358259	-5.5628144	-4.7066817
C	3.4161212	-3.7158102	-3.1371434
H	2.4774811	-3.1694363	-2.9744255
H	3.5378628	-4.4753421	-2.3619872
H	4.2279026	-2.9799926	-3.0636805
