31
-0.00343163 (energy)
C	2.6858158	-1.4210843	-1.1455986
O	2.5074273	-2.4169884	-1.8417436
O	3.2187982	-1.4984204	0.1158318
H	3.1845374	-0.5987555	0.5242317
N	2.2570563	0.9593233	-0.5250582
C	0.0601420	0.0555222	0.0084327
H	0.1032490	-0.7253817	-0.7401349
H	-0.8193495	0.0642883	0.6397284
C	1.0365976	0.9664874	0.2032602
C	0.9285262	2.0242572	1.2794855
H	0.8191633	3.0331639	0.8618530
H	0.0554755	1.8322212	1.9066634
H	1.8171325	2.0326409	1.9230834
C	3.5680068	2.0699969	-2.2012368
C	3.0402578	2.2130614	-0.7599902
C	2.4324600	0.0053173	-1.6402963
C	3.6683090	0.5469910	-2.4057884
H	2.8475759	2.4975500	-2.9087084
H	4.5247526	2.5800850	-2.3467263
H	2.4104997	3.0989993	-0.6464781
H	3.8635748	2.2914680	-0.0386991
H	1.5517516	-0.0210150	-2.2955857
H	4.5877159	0.1587143	-1.9505784
H	3.6558734	0.2406127	-3.4538260
C	4.5654984	-6.4705680	-0.0956243
H	5.3720961	-6.7384566	0.6130496
O	4.1144343	-7.3207659	-0.8713284
C	4.0937462	-5.0450670	-0.0287310
H	4.9307872	-4.3608902	-0.2218921
H	3.3006998	-4.8701791	-0.7588464
H	3.7240124	-4.8166371	0.9796985
