31
-0.00512715 (energy)
C	-0.4252175	-0.0572187	0.1528830
O	0.2232211	0.4893399	1.0411772
O	0.1326465	-0.4000032	-1.0523324
H	-0.5848830	-0.7365434	-1.6433090
N	-2.5672941	-0.6818168	-0.9681121
C	-2.6630583	1.7222756	-1.3410334
H	-2.1125448	1.9716041	-0.4428170
H	-2.9410237	2.5530135	-1.9772144
C	-2.9780260	0.4616408	-1.7055553
C	-3.7337069	0.1731427	-2.9840437
H	-4.7442976	-0.2094741	-2.7927827
H	-3.8347686	1.0868857	-3.5733720
H	-3.2132149	-0.5735345	-3.5968005
C	-3.2774231	-2.4761526	0.4594163
C	-3.3530618	-1.9556168	-0.9895487
C	-1.8794046	-0.5025174	0.3277696
C	-1.9469668	-1.9060953	0.9851247
H	-4.1144641	-2.0780077	1.0452332
H	-3.3198768	-3.5679996	0.5122113
H	-4.3852282	-1.7774965	-1.3014331
H	-2.9074753	-2.6689847	-1.6944020
H	-2.3830394	0.2441555	0.9559229
H	-1.1047088	-2.5190568	0.6413753
H	-1.8940955	-1.8411270	2.0738803
C	2.6085269	2.2398026	-1.4885571
H	1.5671190	1.9968223	-1.2039292
O	2.8338810	3.1408321	-2.3042615
C	3.6706112	1.4110793	-0.8220194
H	3.5163449	0.3473679	-1.0473348
H	4.6628234	1.7177061	-1.1597643
H	3.6029530	1.5169633	0.2688629
