31
-0.00299319 (energy)
C	0.4706894	-1.2770039	2.0935514
O	0.5170538	-2.3109969	2.7545917
O	0.4432157	-0.0370601	2.6792494
H	0.3118638	0.6394772	1.9704441
N	0.0000000	0.0000000	0.0000000
C	-2.2842352	-0.6494822	0.5369768
H	-1.9992461	-1.5702854	1.0298511
H	-3.3404378	-0.4117331	0.5422541
C	-1.4065179	0.2012497	-0.0349922
C	-1.8629628	1.4845913	-0.6934069
H	-1.7221969	1.4669182	-1.7815901
H	-2.9260161	1.6456223	-0.5025297
H	-1.3108821	2.3507363	-0.3075195
C	1.9510758	-0.5632530	-1.2797699
C	0.8990986	0.5430840	-1.0663668
C	0.5410338	-1.2543124	0.5644755
C	2.0158938	-1.2759095	0.0838165
H	1.6094118	-1.2616748	-2.0529523
H	2.9192051	-0.1621070	-1.5936600
H	0.3422262	0.7532201	-1.9829377
H	1.3653210	1.4794002	-0.7343910
H	-0.0004160	-2.1344748	0.1931385
H	2.6435623	-0.7097084	0.7829106
H	2.4048611	-2.2949031	0.0312654
C	3.4527532	-4.2199931	5.6589338
H	3.3569258	-3.5081130	6.5007334
O	3.3346712	-5.4343047	5.8577205
C	3.7266278	-3.6007343	4.3170734
H	4.6573263	-3.0188563	4.3526436
H	3.8054993	-4.3727221	3.5487044
H	2.9240098	-2.8989372	4.0542073
