31
-0.0047559 (energy)
C	-0.2740967	0.2189502	0.2904977
O	0.8858605	0.4663418	0.6091860
O	-0.5818313	-0.5942126	-0.7703149
H	-1.5615401	-0.5776005	-0.9016756
N	-2.7250738	0.6963821	0.2865995
C	-1.9887481	2.6260336	-1.0026525
H	-1.0217285	2.6891960	-0.5200491
H	-2.1716990	3.3343694	-1.8007163
C	-2.9303833	1.7128412	-0.6853456
C	-4.2580016	1.6611445	-1.4089300
H	-5.0960693	1.9497284	-0.7619125
H	-4.2480703	2.3469449	-2.2586516
H	-4.4695145	0.6525298	-1.7855840
C	-3.3075200	-0.0940691	2.4769659
C	-3.8638657	0.0987056	1.0523623
C	-1.4859404	0.7006740	1.0923165
C	-1.7939365	-0.2750504	2.2584262
H	-3.4957680	0.8036047	3.0778675
H	-3.7651699	-0.9443764	2.9910220
H	-4.7345291	0.7591994	1.0446528
H	-4.1643457	-0.8584537	0.6075957
H	-1.2539346	1.7027776	1.4766428
H	-1.5712540	-1.3042922	1.9512492
H	-1.1904839	-0.0485020	3.1398602
C	3.8593971	1.2985873	-2.6442150
H	3.1062913	2.1091138	-2.6227401
O	4.5603187	1.1303547	-3.6484156
C	3.9448873	0.4628762	-1.3978778
H	2.9739936	-0.0067539	-1.1908517
H	4.7100859	-0.3086245	-1.5066639
H	4.1807508	1.0973897	-0.5332539
