31
-0.00512637 (energy)
C	-0.2740967	0.2480641	-0.2660682
O	0.8858605	0.5189518	-0.5650410
O	-0.5818313	-0.6554282	0.7189489
H	-1.5615401	-0.7876779	0.7253997
N	-2.7250738	0.1613200	-0.7355699
C	-1.9887481	-1.4434259	-2.4120295
H	-1.0217285	-0.9791223	-2.5580355
H	-2.1716990	-2.3523664	-2.9710218
C	-2.9303833	-0.9723654	-1.5678104
C	-4.2580016	-1.6759799	-1.3912499
H	-5.0960693	-1.0889040	-1.7878030
H	-4.2480703	-2.6318802	-1.9190788
H	-4.4695145	-1.8717676	-0.3325530
C	-3.3075200	2.4556702	-0.3374805
C	-3.8638657	1.0192345	-0.2799468
C	-1.4859404	0.9540511	-0.8797079
C	-1.7939365	2.2718776	-0.1212998
H	-3.4957680	2.8915633	-1.3258622
H	-3.7651699	3.1095709	0.4106437
H	-4.7345291	0.8969486	-0.9290675
H	-4.1643457	0.7474339	0.7399040
H	-1.2539346	1.1585251	-1.9333248
H	-1.5712540	2.1480933	0.9456463
H	-1.1904839	3.1005809	-0.4974657
C	3.1435303	-1.4216991	-2.2389885
H	2.5303372	-0.5574878	-2.5579179
O	2.9581622	-2.5338072	-2.7458084
C	4.1724474	-1.1292986	-1.1830957
H	3.6865003	-0.7309501	-0.2824177
H	4.7286496	-2.0344458	-0.9302632
H	4.8671135	-0.3558673	-1.5367288
