31
-0.00332427 (energy)
C	-0.1430360	0.4268882	0.0690236
O	1.0747430	0.4083605	0.2269363
O	-0.8544788	-0.7009295	-0.2521212
H	-1.7926475	-0.4396050	-0.4221506
N	-2.3054533	1.5912241	-0.3821068
C	-1.2624493	1.9317304	-2.5556062
H	-0.2525095	1.9470317	-2.1659783
H	-1.3610361	2.0102501	-3.6308884
C	-2.3635202	1.7908576	-1.7880916
C	-3.7501260	1.7574645	-2.3922659
H	-4.3415275	2.6426522	-2.1258886
H	-3.6829717	1.7232418	-3.4816541
H	-4.3120446	0.8770173	-2.0561562
C	-2.7123292	2.5654376	1.7736115
C	-3.4216452	2.0171739	0.5196355
C	-1.0019918	1.6708998	0.3102008
C	-1.3810047	1.7923102	1.8096407
H	-2.5205749	3.6387390	1.6570226
H	-3.3063300	2.4271106	2.6817680
H	-4.0454825	2.7777033	0.0434125
H	-4.0635723	1.1617043	0.7653192
H	-0.4214328	2.5444955	-0.0146481
H	-1.5291415	0.7934710	2.2381959
H	-0.5961075	2.2913468	2.3817455
C	5.8745916	0.4323191	0.3348048
H	5.9888570	0.4470359	1.4354000
O	6.6233997	-0.2670575	-0.3566943
C	4.7765970	1.3006529	-0.2124450
H	4.9416298	2.3465430	0.0789739
H	4.7360287	1.2249525	-1.3011141
H	3.8102293	1.0014196	0.2146455
