31
-0.00510837 (energy)
C	-1.0442653	2.2491109	-1.2889377
O	-1.6653310	3.2255510	-0.8777109
O	-0.2419972	2.3094069	-2.3997878
H	0.0805169	1.3968149	-2.6010876
N	-0.6242364	-0.2069414	-1.4521192
C	-2.7652761	-0.1385576	-2.6093463
H	-3.1360808	0.7147620	-2.0558373
H	-3.4111371	-0.5186302	-3.3907071
C	-1.5605605	-0.7083395	-2.3965320
C	-1.0879413	-1.8890474	-3.2159082
H	-1.0212731	-2.8085977	-2.6207169
H	-1.7841025	-2.0783907	-4.0356375
H	-0.0949661	-1.7063005	-3.6454583
C	0.4546837	-0.5867478	0.6581983
C	0.3833082	-1.0973664	-0.7945069
C	-1.0162702	0.9037003	-0.5591274
C	0.0753734	0.9013170	0.5431521
H	-0.2796454	-1.1149145	1.2779879
H	1.4418560	-0.7381803	1.1046046
H	0.0738899	-2.1445379	-0.8398769
H	1.3554770	-1.0122644	-1.2964080
H	-2.0099338	0.7419740	-0.1206960
H	0.9384919	1.4926353	0.2135265
H	-0.2948655	1.3357140	1.4740803
C	4.4072883	1.1787887	0.2156156
H	3.8467693	2.0946651	0.4831449
O	3.7992200	0.1527493	-0.1092044
C	5.9043560	1.2951078	0.2814659
H	6.2168619	1.5777134	1.2956261
H	6.3739026	0.3493479	0.0028244
H	6.2511153	2.0914394	-0.3904175
