31
-0.00414479 (energy)
C	3.0990187	-0.3585561	1.6292064
O	4.0535695	-0.6993385	2.3261938
O	2.1821582	0.5400886	2.1081382
H	1.4272382	0.7189583	1.4931720
N	2.3908145	0.1285828	-0.7292289
C	0.0636008	0.0331815	-0.0405303
H	0.1884338	-0.7979760	0.6440014
H	-0.9457180	0.4028901	-0.1614137
C	1.0649509	0.5322021	-0.8207816
C	0.7801997	1.6244780	-1.8289828
H	1.0372376	1.3044740	-2.8460684
H	-0.2798393	1.8834483	-1.8148344
H	1.3570212	2.5322494	-1.6155520
C	4.7190316	-0.1628541	-1.1331832
C	3.4589042	0.5420257	-1.6721269
C	2.8567089	-0.9153029	0.2056643
C	4.1665933	-1.4188959	-0.4273095
H	5.4285531	-0.4005344	-1.9305016
H	5.2319807	0.4757588	-0.4050708
H	3.2253068	0.2066578	-2.6932201
H	3.5737083	1.6307993	-1.6932901
H	2.1112318	-1.7198966	0.2796793
H	4.8427044	-1.8165943	0.3307001
H	3.9433851	-2.2062398	-1.1558723
C	5.7685526	-1.2468999	-5.3460687
H	6.4520520	-1.8567593	-4.7251960
O	4.8471131	-0.6157740	-4.8163125
C	6.0529436	-1.2582739	-6.8218974
H	6.0060856	-2.2854702	-7.2075385
H	5.3334331	-0.6329680	-7.3546957
H	7.0711405	-0.8941916	-7.0130321
