31
-0.00443906 (energy)
C	2.8881151	1.1811241	1.6280447
O	3.7117106	1.7011112	2.3793071
O	2.3576776	1.8961107	0.5864108
H	1.6720089	1.4084257	0.0647750
N	2.2466308	-0.9754943	0.5151344
C	0.0685344	-0.0421214	-0.0178215
H	-0.0534597	0.4875105	0.9200469
H	-0.7625677	0.0140219	-0.7078498
C	1.1312378	-0.8483425	-0.3027506
C	1.1716858	-1.6368218	-1.5939840
H	1.2450315	-2.7139482	-1.4007144
H	0.2636427	-1.4592288	-2.1726609
H	2.0321559	-1.3556799	-2.2127530
C	4.3122849	-1.6889019	1.4600321
C	3.3335646	-1.9622376	0.3013127
C	2.3883469	-0.2727164	1.8061805
C	3.4120203	-1.1242527	2.5788626
H	4.8516069	-2.5906944	1.7625735
H	5.0526430	-0.9365408	1.1652211
H	2.9404509	-2.9882589	0.3504329
H	3.8069134	-1.8294857	-0.6771420
H	1.4212168	-0.2362593	2.3276359
H	3.9584216	-0.5205451	3.3047080
H	2.8938066	-1.9337546	3.1048828
C	1.4360515	2.7559865	-2.8325448
H	1.6627449	3.4741058	-2.0216825
O	1.7796588	1.5732813	-2.7269293
C	0.7066528	3.3270697	-4.0161493
H	1.2920139	4.1415683	-4.4633532
H	0.5252540	2.5520075	-4.7637787
H	-0.2493759	3.7624724	-3.6963885
