31
-0.00453625 (energy)
C	0.4167411	0.0093598	-0.2201684
O	-0.2916903	0.9148488	-0.6575538
O	-0.0586476	-0.8275873	0.7550733
H	0.5980503	-1.4963482	1.0738034
N	2.1657389	-1.6749833	-0.8566188
C	2.6470959	-2.0500755	1.4943240
H	2.5495540	-1.0119580	1.7906131
H	2.9387757	-2.7419733	2.2729266
C	2.5444543	-2.4855787	0.2057910
C	2.8008503	-3.9374594	-0.1361491
H	3.6194613	-4.0377327	-0.8591673
H	3.0744108	-4.4936011	0.7620823
H	1.9154542	-4.4118512	-0.5758658
C	1.6867653	-0.8504026	-3.0382146
C	2.2025471	-2.0894362	-2.2805856
C	1.8639083	-0.2368334	-0.7103205
C	2.0782155	0.3304910	-2.1253380
H	2.1172402	-0.7740388	-4.0404567
H	0.5965798	-0.8926790	-3.1421328
H	3.2295674	-2.3389540	-2.5849552
H	1.5758164	-2.9699044	-2.4567679
H	2.5495372	0.2239000	0.0150918
H	1.4679833	1.2195881	-2.2896300
H	3.1338001	0.5913404	-2.2603747
C	3.1299305	3.9050968	-0.5890783
H	2.6561921	4.1499015	0.3805739
O	3.7517592	2.8454431	-0.7250012
C	2.9541725	4.9327205	-1.6717495
H	3.3670927	5.8972740	-1.3474345
H	3.4513167	4.6103968	-2.5891000
H	1.8861004	5.0952570	-1.8682620
