31
-0.00447332 (energy)
C	-0.4264872	-0.1196261	0.1613479
O	0.4326274	-0.5707969	0.9172966
O	-0.0608940	0.6001475	-0.9458281
H	-0.8215678	0.9585522	-1.4683255
N	-2.6777462	-0.5854985	-0.8465559
C	-2.8391407	1.7374440	-1.5373675
H	-2.3893244	2.1474611	-0.6404055
H	-3.1850200	2.4563324	-2.2678391
C	-3.0920363	0.4098923	-1.7222075
C	-3.8214893	-0.0672326	-2.9594907
H	-4.7440761	-0.5993301	-2.6974987
H	-4.0896736	0.7821813	-3.5899839
H	-3.2051990	-0.7528488	-3.5531585
C	-2.3564937	-2.6814620	0.2362380
C	-3.0786073	-2.0101952	-0.9483250
C	-1.9431224	-0.3091630	0.4043425
C	-2.2184471	-1.5486729	1.2749000
H	-2.9097824	-3.5437168	0.6183605
H	-1.3623476	-3.0273825	-0.0688904
H	-4.1696477	-2.1132064	-0.8551033
H	-2.7805951	-2.4414038	-1.9097321
H	-2.3268817	0.6064395	0.8765565
H	-1.4097631	-1.7168999	1.9873597
H	-3.1562017	-1.4104355	1.8244843
C	4.7067804	-0.5482627	-1.2831350
H	4.9005621	0.2313730	-2.0441867
O	5.3968439	-1.5735042	-1.2565967
C	3.5803803	-0.2566057	-0.3316956
H	2.6445208	-0.1114193	-0.8876945
H	3.4605800	-1.0750738	0.3812804
H	3.7758195	0.6786923	0.2094461
