31
-0.00560654 (energy)
C	-0.3567298	0.1020455	0.2908013
O	0.1155710	1.1480431	-0.1518185
O	0.1711154	-1.1054640	-0.0845269
H	-0.3023990	-1.8908004	0.2884514
N	-1.3925114	-0.9470763	2.3224445
C	-2.1357723	-2.8194241	0.9655335
H	-2.4022698	-2.2248203	0.0992685
H	-2.3380716	-3.8797154	0.8956817
C	-1.6899733	-2.2917108	2.1416701
C	-1.4423872	-3.1846523	3.3383222
H	-2.0582857	-2.8832304	4.1943291
H	-1.6883284	-4.2193834	3.0937960
H	-0.3946770	-3.1488323	3.6597954
C	-0.8135879	1.1506910	3.2883270
C	-1.0608269	-0.3314741	3.6308124
C	-1.5598792	0.0686807	1.2636689
C	-1.6873204	1.3922222	2.0395913
H	-1.0693273	1.8120341	4.1207043
H	0.2411447	1.3144572	3.0397094
H	-1.8999533	-0.4395132	4.3335678
H	-0.1809707	-0.8018456	4.0820989
H	-2.4646808	-0.1405779	0.6753406
H	-1.3491431	2.2361110	1.4368006
H	-2.7334159	1.5520976	2.3235987
C	2.6598920	-1.3868623	-2.2175091
H	1.9018856	-0.7948767	-2.7648319
O	2.8031510	-2.5896846	-2.4638983
C	3.4592930	-0.6269893	-1.1964170
H	2.7906721	-0.1878253	-0.4440022
H	4.1797556	-1.2860010	-0.7073219
H	3.9883673	0.2073611	-1.6757428
