31
-0.00418717 (energy)
C	2.4191099	2.5226527	-0.4134283
O	3.2882641	3.3825363	-0.2782890
O	1.0944342	2.8623225	-0.3272322
H	0.4715452	2.0968349	-0.4054640
N	1.8314701	0.4205875	-1.6532168
C	0.0322404	0.0039130	-0.0757234
H	0.5776025	0.3379520	0.7994839
H	-0.9614836	-0.3845436	0.1021411
C	0.5705186	-0.0620895	-1.3272887
C	-0.2265141	-0.6421687	-2.4757078
H	0.2864839	-1.5028385	-2.9218184
H	-1.2040643	-0.9771359	-2.1247932
H	-0.3831055	0.0948687	-3.2723129
C	3.8445628	0.9407078	-2.8132348
C	2.4932009	0.2154365	-2.9650219
C	2.7448171	1.0309670	-0.6662951
C	4.1376841	0.8633228	-1.3002318
H	4.6275405	0.4805481	-3.4221915
H	3.7519774	1.9889245	-3.1194383
H	2.6405236	-0.8567246	-3.1610765
H	1.8942903	0.6282360	-3.7835318
H	2.6748127	0.5019827	0.2948814
H	4.8227591	1.6393862	-0.9563324
H	4.5464242	-0.1178968	-1.0343829
C	3.6902059	1.9720124	3.4306233
H	2.8040918	1.5388117	3.9323422
O	4.2000147	1.3933933	2.4645452
C	4.1903635	3.2669065	4.0069651
H	4.4542146	3.1325550	5.0644995
H	5.0626418	3.6202665	3.4530300
H	3.3982902	4.0266527	3.9720509
