31
-0.00371096 (energy)
C	-0.4884292	0.1215338	2.4838828
O	-0.6514731	1.3060427	2.7727538
O	-1.1373581	-0.8559832	3.1916419
H	-0.9097429	-1.7787990	2.9147224
N	-0.1291381	-1.4604769	0.5683602
C	0.5291320	-3.1949161	2.1360757
H	1.0820763	-2.5375212	2.7971915
H	0.5414264	-4.2461550	2.3905700
C	-0.0544114	-2.7872195	0.9725569
C	-0.7159618	-3.7910145	0.0531189
H	-0.2545900	-3.7841241	-0.9418799
H	-0.6193507	-4.7979874	0.4625335
H	-1.7830980	-3.5763958	-0.0791072
C	-0.5035683	0.5195914	-0.6996464
C	-0.6155556	-1.0162943	-0.7608903
C	0.4485130	-0.3441227	1.3435072
C	0.6485947	0.7667452	0.2966077
H	-0.3155588	0.9565748	-1.6841905
H	-1.4305253	0.9548768	-0.3093028
H	0.0169427	-1.4265240	-1.5617200
H	-1.6437513	-1.3470562	-0.9410730
H	1.4041357	-0.6481628	1.7939849
H	0.6112285	1.7542818	0.7583913
H	1.6196725	0.6380730	-0.1942970
C	4.9459812	0.9385758	0.8373616
H	4.3854622	1.7077176	1.4020051
O	4.3379128	0.0855090	0.1812046
C	6.4430489	1.0253579	0.9390239
H	6.7555548	0.9440572	1.9886796
H	6.9125954	0.2319353	0.3537177
H	6.7898081	2.0034625	0.5800215
