31
-0.00386997 (energy)
C	-1.9755834	1.0117851	-1.1723633
O	-2.4912457	2.0784242	-1.5032177
O	-2.0728254	-0.0834989	-1.9899622
H	-1.6650528	-0.9060338	-1.6195031
N	0.0000000	0.0000000	-0.0000000
C	-1.1565724	-2.1339928	0.0880109
H	-2.1347911	-1.7170837	0.2984022
H	-1.0952762	-3.2135547	0.0595372
C	-0.0187228	-1.3887597	-0.0141731
C	1.3242002	-2.0607083	-0.2030178
H	2.0143923	-1.8069679	0.6107295
H	1.2042603	-3.1453072	-0.2174495
H	1.7999957	-1.7565908	-1.1429411
C	0.7145161	2.2707951	0.0408126
C	1.2351219	0.8202356	0.0499489
C	-1.2143603	0.8245318	0.1620387
C	-0.6800442	2.1671012	0.6931437
H	1.3844030	2.9502160	0.5749174
H	0.6159403	2.6347421	-0.9882239
H	1.8026036	0.6103479	0.9684163
H	1.8878883	0.6119282	-0.8041938
H	-1.9010517	0.3534706	0.8797724
H	-1.3425416	2.9898556	0.4210385
H	-0.5949624	2.1225141	1.7846148
C	5.4270355	0.3631221	0.1969890
H	5.2259720	1.2351341	0.8479508
O	4.4878786	-0.2809543	-0.2838043
C	6.8789061	0.0515783	-0.0355838
H	7.3820276	-0.1398928	0.9216280
H	6.9835792	-0.8194067	-0.6859726
H	7.3820939	0.9148768	-0.4909200
