31
-0.004003 (energy)
C	-1.7121090	-0.4923191	-1.8025848
O	-1.1519024	-0.3682747	-2.8906441
O	-2.7521516	-1.3728818	-1.6594354
H	-3.1669296	-1.3709565	-0.7605263
N	-1.3308643	-0.4910765	0.6784886
C	-3.7258050	-0.3044159	1.0373027
H	-3.9044273	0.3787520	0.2148884
H	-4.5853897	-0.5528187	1.6451120
C	-2.4886265	-0.7487634	1.4012535
C	-2.3155439	-1.6164120	2.6291980
H	-1.6406650	-1.1479927	3.3558725
H	-3.2786215	-1.7752890	3.1172433
H	-1.8946269	-2.5966666	2.3757135
C	0.9441744	-0.3485906	-0.0089746
C	0.0375740	-0.8291504	1.1409709
C	-1.3092715	0.3253451	-0.5518649
C	0.1489766	0.8095654	-0.6472706
H	1.9308936	-0.0410042	0.3479639
H	1.0862065	-1.1494117	-0.7435515
H	0.2722084	-0.2998655	2.0761046
H	0.1426697	-1.9032069	1.3264788
H	-2.0075211	1.1695557	-0.4605350
H	0.4322251	1.0042928	-1.6825099
H	0.2692400	1.7296163	-0.0645364
C	3.5606646	0.8154905	-3.1617465
H	4.1666503	-0.0979596	-3.3133157
O	3.2075088	1.1430779	-2.0233355
C	3.2243448	1.5822242	-4.4099798
H	2.6697924	0.9416492	-5.1086801
H	2.6274886	2.4640887	-4.1677933
H	4.1448252	1.8892841	-4.9240260
