31
-0.00404815 (energy)
C	3.9478307	0.9148196	0.0458011
O	5.1411429	0.9325173	0.3437680
O	3.5577057	0.5447036	-1.2145115
H	2.5822305	0.6034888	-1.3728609
N	1.6503365	0.4297563	0.9331051
C	0.6805377	1.5602986	-0.9854088
H	1.4152260	2.3564063	-1.0232937
H	-0.1239972	1.6202838	-1.7059274
C	0.6578188	0.5921011	-0.0248917
C	-0.4663407	-0.4203624	0.0175632
H	-1.0026751	-0.3800610	0.9734164
H	-1.1837382	-0.2207005	-0.7801989
H	-0.0934836	-1.4441029	-0.1059586
C	2.9000771	-0.3118150	2.8190874
C	1.5643438	-0.5113805	2.0766408
C	2.8281904	1.3144669	1.0366798
C	3.2881498	1.1463472	2.4962112
H	2.8046393	-0.4988460	3.8921859
H	3.6618914	-0.9938542	2.4246863
H	0.7115986	-0.2581254	2.7234470
H	1.4333648	-1.5436414	1.7355580
H	2.5428406	2.3543919	0.8228649
H	4.3574145	1.3373471	2.5965158
H	2.7385105	1.8446381	3.1371657
C	9.7359856	-0.2948249	-0.9811000
H	9.9370491	0.5771870	-1.6320619
O	10.6751425	-0.9389011	-0.5003065
C	8.2841150	-0.6063689	-0.7485273
H	7.7809936	-0.7978402	-1.7057391
H	8.1794420	-1.4773538	-0.0981384
H	7.7809271	0.2569296	-0.2931913
