31
-0.00373525 (energy)
C	-1.9755834	-0.0214917	1.5484453
O	-2.4912457	-0.6259155	2.4875169
O	-2.0728254	1.3430870	1.4707274
H	-1.6650528	1.7350587	0.6582240
N	0.0000000	0.0000000	-0.0000000
C	-1.1565724	1.5781609	-1.4391244
H	-2.1347911	1.1235531	-1.3323095
H	-1.0952762	2.4234558	-2.1112413
C	-0.0187228	1.0729619	-0.8818203
C	1.3242002	1.7090914	-1.1690772
H	2.0143923	0.9916483	-1.6293426
H	1.2042603	2.5492188	-1.8551886
H	1.7999957	2.0802950	-0.2535712
C	0.7145161	-1.7657637	1.4283747
C	1.2351219	-0.6604434	0.4889742
C	-1.2143603	-0.7357844	0.4058700
C	-0.6800442	-2.1056399	0.8620070
H	1.3844030	-2.6295463	1.4559502
H	0.6159403	-1.3831113	2.4506030
H	1.8026036	-1.0900397	-0.3495258
H	1.8878883	0.0481617	1.0093880
H	-1.9010517	-0.8362810	-0.4467382
H	-1.3425416	-2.5610005	1.5993081
H	-0.5949624	-2.7730684	-0.0027684
C	3.8105167	-5.0571294	-0.2423172
H	4.9153559	-5.0477770	-0.3041700
O	3.1833513	-3.9928984	-0.1966223
C	3.1761477	-6.4195411	-0.2202216
H	3.5502709	-6.9963919	0.6361206
H	2.0891841	-6.3341681	-0.1585901
H	3.4518103	-6.9790983	-1.1239468
