31
-0.00332673 (energy)
C	2.4191099	-0.8452014	-2.4125369
O	3.2882641	-0.8614323	-3.2828236
O	1.0944342	-0.8192978	-2.7620141
H	0.4715452	-0.7634156	-1.9945712
N	1.8314701	-1.7011350	-0.1271198
C	0.0322404	-0.0752524	0.0092956
H	0.5776025	0.7286532	-0.4716466
H	-0.9614836	0.1673646	0.3609650
C	0.5705186	-1.2963425	0.2916274
C	-0.2265141	-2.3265848	1.0623148
H	0.2864839	-2.6164643	1.9873753
H	-1.2040643	-1.9228350	1.3312575
H	-0.3831055	-3.2390729	0.4748037
C	3.8445628	-2.9338477	-0.4379033
C	2.4932009	-2.9573867	0.3027070
C	2.7448171	-0.8351981	-0.8996034
C	4.1376841	-1.4303928	-0.6244242
H	4.6275405	-3.4536471	0.1210097
H	3.7519774	-3.4174201	-1.4170236
H	2.6405236	-2.9642840	1.3926241
H	1.8942903	-3.8351434	0.0383116
H	2.6748127	0.2032331	-0.5455620
H	4.8227591	-1.2264800	-1.4484149
H	4.5464242	-0.9981958	0.2957244
C	5.2761698	2.0282524	1.6384230
H	5.0823880	1.4141452	2.5383696
O	4.5861062	1.8763564	0.6241490
C	6.4025701	3.0158829	1.7604333
H	7.3384295	2.4935421	1.9999622
H	6.5223704	3.5759016	0.8305926
H	6.2071310	3.7112163	2.5875538
