31
-0.0033717 (energy)
C	-2.4191098	-0.8452012	2.4125371
O	-3.2882640	-0.8614321	3.2828238
O	-1.0944341	-0.8192975	2.7620142
H	-0.4715451	-0.7634154	1.9945713
N	-1.8314701	-1.7011350	0.1271200
C	-0.0322404	-0.0752524	-0.0092956
H	-0.5776025	0.7286533	0.4716466
H	0.9614836	0.1673646	-0.3609650
C	-0.5705186	-1.2963425	-0.2916273
C	0.2265141	-2.3265849	-1.0623146
H	-0.2864838	-2.6164645	-1.9873751
H	1.2040643	-1.9228351	-1.3312573
H	0.3831056	-3.2390729	-0.4748034
C	-3.8445627	-2.9338478	0.4379037
C	-2.4932008	-2.9573869	-0.3027067
C	-2.7448170	-0.8351982	0.8996036
C	-4.1376840	-1.4303929	0.6244244
H	-4.6275404	-3.4536473	-0.1210092
H	-3.7519772	-3.4174201	1.4170240
H	-2.6405235	-2.9642842	-1.3926237
H	-1.8942901	-3.8351435	-0.0383112
H	-2.6748127	0.2032331	0.5455621
H	-4.8227590	-1.2264800	1.4484151
H	-4.5464242	-0.9981960	-0.2957242
C	3.3235849	-1.4329413	1.2947204
H	3.4194124	-0.7275469	2.1419623
O	3.4416668	-1.0263118	0.1333758
C	3.0497104	-2.8619488	1.6715601
H	2.1190120	-2.9279610	2.2507748
H	2.9708389	-3.4845905	0.7778748
H	3.8523285	-3.2426870	2.3170491
