31
-0.00366865 (energy)
C	-2.5087061	-0.0702668	-0.0503054
O	-3.5073500	-0.2839392	0.6353665
O	-2.5332418	0.8966144	-1.0209288
H	-1.6986027	0.9652842	-1.5488911
N	0.0000000	0.0000000	-0.0000000
C	0.0390656	0.0224431	-2.4284359
H	-0.7789527	-0.6773871	-2.5552168
H	0.5180496	0.3643497	-3.3360129
C	0.5524807	0.3799890	-1.2163792
C	1.7658644	1.2807097	-1.1325841
H	2.5904352	0.7896507	-0.6016621
H	2.1150090	1.5368844	-2.1342932
H	1.5418689	2.2124540	-0.5996647
C	-0.3707905	-0.3540954	2.3250462
C	0.6318516	0.2451665	1.3196455
C	-1.1911421	-0.8655362	0.1131717
C	-1.0750314	-1.4695362	1.5244693
H	0.1246475	-0.7254318	3.2263119
H	-1.1033797	0.4016533	2.6304111
H	1.6055453	-0.2623341	1.3831629
H	0.7973840	1.3139506	1.4909790
H	-1.1691321	-1.6460730	-0.6606909
H	-2.0564618	-1.7290408	1.9236191
H	-0.4539879	-2.3714810	1.4879077
C	3.9041188	-3.3736914	0.4230613
H	4.2707250	-3.3118501	-0.6192240
O	3.3614364	-2.3950586	0.9482144
C	4.1181474	-4.6954344	1.1058975
H	5.1884552	-4.9404497	1.1272404
H	3.7277523	-4.6666856	2.1253787
H	3.6209215	-5.4962835	0.5426743
