31
-0.00353519 (energy)
C	-0.5180632	-2.1377549	1.2094168
O	-0.3094599	-3.3500140	1.2113863
O	-0.6425110	-1.4580382	2.3926619
H	-0.8524061	-0.4960313	2.2898570
N	0.0000000	0.0000000	-0.0000000
C	-1.8110371	1.0999861	1.1872262
H	-2.4917368	0.2572743	1.1488302
H	-2.1961098	2.0026470	1.6421372
C	-0.5811656	1.1110704	0.5974730
C	0.2629280	2.3672708	0.6067445
H	0.4957929	2.6981053	-0.4126948
H	-0.2699752	3.1757434	1.1100682
H	1.2158844	2.2103744	1.1259575
C	1.4654925	-1.4327356	-1.2117382
C	1.2604648	0.0329418	-0.7816333
C	-0.6693658	-1.3131504	-0.0914629
C	0.0331432	-2.0032478	-1.2748080
H	1.9963808	-1.5100146	-2.1645314
H	2.0470548	-1.9744442	-0.4571338
H	1.1562035	0.6903166	-1.6572238
H	2.0950285	0.4053702	-0.1784284
H	-1.7434479	-1.1800272	-0.2843650
H	-0.0004313	-3.0888566	-1.1738366
H	-0.4575474	-1.7158954	-2.2113909
C	5.7682774	-0.2723904	-0.3101466
H	5.5672138	-0.8691716	-1.2200964
O	4.8291206	0.1684024	0.3619384
C	7.2201481	-0.0591797	0.0149544
H	7.7232695	0.4481300	-0.8190435
H	7.3248213	0.5368323	0.9240144
H	7.7233358	-1.0261492	0.1475649
