31
-0.00524312 (energy)
C	-0.1650917	2.1464859	1.3372922
O	0.1728444	1.8913955	2.4922032
O	0.0443639	3.3972385	0.8183343
H	-0.2998485	3.5195302	-0.1017986
N	-0.3486421	1.1843362	-0.9739092
C	-1.7592692	3.0499770	-1.6287729
H	-2.3075551	3.1025961	-0.6951759
H	-2.0686113	3.7401434	-2.4020773
C	-0.8164422	2.1035432	-1.9041922
C	-0.1745736	2.0355202	-3.2731324
H	-0.3459142	1.0605113	-3.7452915
H	-0.5940053	2.8039601	-3.9246887
H	0.9100332	2.1873458	-3.2192641
C	0.7707388	-0.6444262	0.0611384
C	0.5543598	0.0523503	-1.2964033
C	-0.8491208	1.1102411	0.4134665
C	-0.5186256	-0.3291883	0.8480636
H	0.9480899	-1.7174089	-0.0523684
H	1.6352183	-0.2129417	0.5784267
H	0.0796378	-0.6283406	-2.0181856
H	1.4950393	0.4035800	-1.7332276
H	-1.9319809	1.2984075	0.4378148
H	-0.3873951	-0.3937636	1.9290250
H	-1.3308101	-0.9996484	0.5457794
C	4.0007652	3.0249313	3.1731220
H	3.9006107	2.9979899	2.0713842
O	4.8576827	2.3332327	3.7345999
C	3.0431353	3.9374303	3.8868227
H	2.0077425	3.6455522	3.6658799
H	3.2125156	3.9015381	4.9650615
H	3.1652360	4.9680706	3.5280954
