31
-0.00367108 (energy)
C	-1.9755834	-0.0214917	1.5484453
O	-2.4912457	-0.6259155	2.4875169
O	-2.0728254	1.3430870	1.4707274
H	-1.6650528	1.7350587	0.6582240
N	0.0000000	0.0000000	-0.0000000
C	-1.1565724	1.5781609	-1.4391244
H	-2.1347911	1.1235531	-1.3323095
H	-1.0952762	2.4234558	-2.1112413
C	-0.0187228	1.0729619	-0.8818203
C	1.3242002	1.7090914	-1.1690772
H	2.0143923	0.9916483	-1.6293426
H	1.2042603	2.5492188	-1.8551886
H	1.7999957	2.0802950	-0.2535712
C	0.7145161	-1.7657637	1.4283747
C	1.2351219	-0.6604434	0.4889742
C	-1.2143603	-0.7357844	0.4058700
C	-0.6800442	-2.1056399	0.8620070
H	1.3844030	-2.6295463	1.4559502
H	0.6159403	-1.3831113	2.4506030
H	1.8026036	-1.0900397	-0.3495258
H	1.8878883	0.0481617	1.0093880
H	-1.9010517	-0.8362810	-0.4467382
H	-1.3425416	-2.5610005	1.5993081
H	-0.5949624	-2.7730684	-0.0027684
C	4.6514274	1.6319558	2.8198954
H	4.4247340	2.5840984	2.3035452
O	4.3078200	0.5566991	2.3161404
C	5.3808259	1.7637821	4.1274418
H	4.7954648	2.3762078	4.8262508
H	5.5622246	0.7797575	4.5648969
H	6.3368546	2.2822914	3.9758815
