31
-0.00506277 (energy)
C	-0.4167411	0.0840973	0.2036894
O	0.2916903	1.0845733	0.3050016
O	0.0586476	-1.0359280	-0.4264852
H	-0.5980502	-1.7733698	-0.4972637
N	-2.1657388	-1.2809885	1.3778367
C	-2.6470959	-2.4375298	-0.7030377
H	-2.5495540	-1.5633554	-1.3365156
H	-2.9387756	-3.3539990	-1.1980418
C	-2.5444542	-2.4060647	0.6567380
C	-2.8008502	-3.6534358	1.4746292
H	-3.6194611	-3.5003750	2.1883396
H	-3.0744106	-4.4832513	0.8207796
H	-1.9154540	-3.9488261	2.0500793
C	-1.6867652	0.2400138	3.1458427
C	-2.2025469	-1.1834213	2.8576789
C	-1.8639082	0.0203933	0.7484849
C	-2.0782154	1.0374684	1.8841298
H	-2.1172400	0.6545593	4.0615242
H	-0.5965796	0.2358292	3.2579532
H	-3.2295672	-1.3137909	3.2290329
H	-1.5758162	-1.9505328	3.3243741
H	-2.5495372	0.2052354	-0.0907599
H	-1.4679833	1.9291376	1.7344246
H	-3.1338000	1.3287720	1.9218071
C	3.3976539	-2.1663459	0.5697115
H	3.1887287	-2.1604704	1.6564031
O	3.4072934	-3.2336888	-0.0537452
C	3.6558699	-0.8196980	-0.0458711
H	4.5138230	-0.3392533	0.4431444
H	3.8516262	-0.9195459	-1.1155845
H	2.7916621	-0.1607183	0.1113041
