31
-0.00304939 (energy)
C	2.5135535	-1.4830882	-2.8119136
O	3.3177368	-2.2066882	-3.3973908
O	1.2763496	-1.2492802	-3.3524977
H	0.7162847	-0.6206352	-2.8317147
N	1.6834358	-0.8074520	-0.5413422
C	0.5551071	1.1017339	-1.5319047
H	1.3404875	1.3337235	-2.2420795
H	-0.2917704	1.7745808	-1.5220434
C	0.6420012	0.1097202	-0.5997708
C	-0.4555220	-0.0782465	0.4252809
H	-0.0671284	0.0169577	1.4465647
H	-1.2323214	0.6759322	0.2883661
H	-0.9209256	-1.0676418	0.3426902
C	3.1466822	-2.5558498	0.1447514
C	1.8751739	-1.7878324	0.5554249
C	2.8335678	-0.7866888	-1.4673796
C	3.9382338	-1.5354622	-0.6998443
H	3.7067570	-2.9153140	1.0123521
H	2.8862670	-3.4239651	-0.4714065
H	2.0188811	-1.2714437	1.5158216
H	1.0087761	-2.4499532	0.6554579
H	3.1279408	0.2498876	-1.6851851
H	4.6457336	-2.0038439	-1.3853598
H	4.4773501	-0.8332662	-0.0542357
C	7.8526565	-1.5844407	-2.5180038
H	7.6985586	-0.6601399	-3.1066504
O	7.4226511	-1.6616577	-1.3616539
C	8.5977272	-2.6828939	-3.2232331
H	9.5909019	-2.3287686	-3.5302285
H	8.7034383	-3.5527232	-2.5714670
H	8.0666721	-2.9710603	-4.1401594
