31
-0.00511527 (energy)
C	-0.3847926	-0.0276750	0.2709310
O	0.5213833	-0.6789253	0.7884342
O	-0.1730909	0.6266675	-0.9142227
H	-0.9459922	1.1588889	-1.2295735
N	-2.8667779	0.0429225	-0.0976329
C	-2.6887431	2.3639790	-0.7906923
H	-1.9409068	2.6382532	-0.0555024
H	-3.0471038	3.1626866	-1.4260391
C	-3.2666733	1.1305938	-0.8633090
C	-4.3812005	0.8624671	-1.8515178
H	-5.2964857	0.5386755	-1.3412764
H	-4.6116617	1.7683979	-2.4146568
H	-4.1083499	0.0760750	-2.5652857
C	-2.7419944	-2.1035951	0.9249129
C	-3.5833423	-1.2551243	-0.0484666
C	-1.7879673	0.1137218	0.9083170
C	-2.0911012	-1.0602251	1.8570094
H	-3.3513622	-2.8340734	1.4640804
H	-1.9637965	-2.6503945	0.3803863
H	-4.6068071	-1.1184756	0.3303706
H	-3.6499933	-1.7125555	-1.0411246
H	-1.8235698	1.0768552	1.4371760
H	-1.1815046	-1.4232034	2.3373734
H	-2.7979186	-0.7355905	2.6287332
C	2.8289236	2.2797560	-0.1538083
H	3.0475177	2.6934176	-1.1566460
O	2.2508799	2.9736142	0.6902523
C	3.2794081	0.8639353	0.0733339
H	4.3643367	0.7841840	-0.0770544
H	3.0240741	0.5390343	1.0841853
H	2.8079700	0.1955553	-0.6593513
