31
-0.00298436 (energy)
C	-0.0718797	0.6713520	-3.9960580
O	-0.0431049	0.4933798	-5.2128527
O	-1.1892148	1.1979401	-3.4028984
H	-1.1020728	1.3447573	-2.4277405
N	0.6894079	-0.2705760	-1.7973568
C	0.1261309	1.8286666	-0.7132764
H	0.4739270	2.4628724	-1.5206242
H	-0.2397550	2.3377584	0.1681853
C	0.2418058	0.4695758	-0.7106036
C	-0.1718697	-0.3333056	0.5038400
H	0.6678772	-0.9168437	0.9003783
H	-0.5227415	0.3324359	1.2941727
H	-0.9778519	-1.0381380	0.2673474
C	1.4257589	-2.0509388	-3.1962152
C	0.9712706	-1.7265793	-1.7597375
C	1.1230547	0.3405750	-3.0698445
C	2.0378400	-0.7263809	-3.6982009
H	2.1334890	-2.8839873	-3.2240969
H	0.5641864	-2.3198949	-3.8178632
H	1.7676191	-1.9483337	-1.0342551
H	0.0832555	-2.2980931	-1.4701569
H	1.6695976	1.2746413	-2.8764630
H	2.0487419	-0.6445411	-4.7858830
H	3.0588578	-0.6034568	-3.3201155
C	3.9161919	1.9659231	-1.2016673
H	3.4364420	2.6689357	-0.4944218
O	3.8539460	0.7475407	-1.0024640
C	4.6161754	2.6018264	-2.3698830
H	5.3998882	3.2842016	-2.0146291
H	5.0584428	1.8377401	-3.0126493
H	3.9077797	3.2076645	-2.9503562
