31
-0.00475695 (energy)
C	-0.4167411	-0.2184489	-0.0290143
O	0.2916903	-0.8064258	0.7867673
O	0.0586476	0.8873109	-0.6838974
H	-0.5980502	1.3173279	-1.2871515
N	-2.1657388	-0.5527474	-1.7982869
C	-2.6470959	1.8276134	-1.7594440
H	-2.5495540	1.9391341	-0.6856477
H	-2.9387756	2.7145340	-2.3056276
C	-2.5444542	0.6342804	-2.4120822
C	-2.8008502	0.5496514	-3.9012828
H	-3.6194611	-0.1449703	-4.1255835
H	-3.0744106	1.5308096	-4.2929994
H	-1.9154540	0.1989921	-4.4448234
C	-1.6867652	-2.8443866	-1.3650632
C	-2.2025469	-1.8831120	-2.4537123
C	-1.8639082	-0.6584036	-0.3565813
C	-2.0782154	-2.1504385	-0.0435908
H	-2.1172400	-3.8446629	-1.4638970
H	-0.5965796	-2.9393849	-1.4247425
H	-3.2295672	-2.1395292	-2.7522926
H	-1.5758162	-1.9037261	-3.3513979
H	-2.5495372	-0.0240173	0.2231190
H	-1.4679833	-2.4666245	0.8034700
H	-3.1338000	-2.3287198	0.1898469
C	3.7940707	1.9960897	-0.6185040
H	2.9537262	2.6913247	-0.8057266
O	4.9585817	2.3677218	-0.8023948
C	3.4042844	0.6246321	-0.1428478
H	2.7468968	0.1424807	-0.8786593
H	4.2918236	0.0084578	0.0158344
H	2.8334383	0.6974357	0.7923782
