31
-0.00470738 (energy)
C	0.3532013	1.5809460	1.9175331
O	0.9086299	1.7067962	3.0078321
O	0.2372746	2.6554276	1.0751428
H	-0.2624876	2.4675668	0.2414593
N	0.0000000	0.0000000	-0.0000000
C	-1.8246044	1.3902454	-0.7983529
H	-2.2212093	1.6208708	0.1837398
H	-2.3760265	1.7876429	-1.6397985
C	-0.7730401	0.5489474	-1.0150225
C	-0.3503503	0.1963627	-2.4248582
H	-0.4038558	-0.8853666	-2.5978696
H	-1.0045101	0.6861927	-3.1481079
H	0.6803990	0.5100977	-2.6284535
C	1.5942667	-1.2913327	1.2080905
C	1.0410250	-1.0363315	-0.2075841
C	-0.2556865	0.2427990	1.4340339
C	0.4064976	-0.9574095	2.1347980
H	1.9530911	-2.3170722	1.3294690
H	2.4302545	-0.6147919	1.4190590
H	0.5986035	-1.9508104	-0.6290844
H	1.8180999	-0.6896267	-0.8967910
H	-1.3374126	0.2740520	1.6276245
H	0.7137703	-0.7004792	3.1494108
H	-0.2998790	-1.7939853	2.1761401
C	4.3292396	1.7323230	3.8613996
H	4.4218684	2.6757780	3.2905272
O	4.0833332	0.6734649	3.2728745
C	4.5213373	1.8545889	5.3470737
H	3.7879334	2.5564165	5.7661246
H	4.4132664	0.8801079	5.8279938
H	5.5153351	2.2663767	5.5666472
