31
-0.00461398 (energy)
C	-0.2966864	0.2895688	-0.2244147
O	0.5472527	0.9578200	0.3708151
O	-0.2644104	-1.0786893	-0.1580896
H	-0.9563159	-1.5295631	-0.7040400
N	-2.7100338	0.2303090	-0.9123951
C	-2.2140434	-1.5710749	-2.4642780
H	-1.2583873	-1.1742520	-2.7871443
H	-2.5416620	-2.4792855	-2.9519677
C	-3.0473011	-0.9321652	-1.5936508
C	-4.4124741	-1.5043715	-1.2782114
H	-5.2100606	-0.7972950	-1.5367314
H	-4.5774151	-2.4211839	-1.8467164
H	-4.5159729	-1.7395298	-0.2122314
C	-2.7967699	2.1868240	0.4415751
C	-3.6558731	1.0221669	-0.0882857
C	-1.4171569	0.9230573	-1.0837116
C	-1.7115376	2.3676570	-0.6403940
H	-3.3887180	3.0914441	0.6055543
H	-2.3283824	1.9134714	1.3939312
H	-4.4883175	1.3938502	-0.7035569
H	-4.0791482	0.4207616	0.7230130
H	-1.1003085	0.8825348	-2.1356386
H	-0.8107392	2.8559735	-0.2662575
H	-2.1021654	2.9398562	-1.4892368
C	3.9296772	2.3960873	-0.7417102
H	4.0851106	3.1199303	0.0807706
O	3.6701803	2.7990693	-1.8811307
C	4.0577233	0.9478251	-0.3606343
H	3.3336228	0.6991221	0.4266853
H	3.8898148	0.3076696	-1.2293024
H	5.0558014	0.7532794	0.0538600
