31
-0.00411816 (energy)
C	-0.5173172	-1.5771624	1.8866540
O	-1.7286276	-1.3989484	1.8610527
O	0.0770233	-2.1019925	3.0259494
H	1.0381249	-2.2550874	2.9211919
N	-0.0871130	-1.4494697	-0.5619584
C	0.2340693	-3.8388861	-0.3494657
H	0.5488911	-3.7953930	0.6857641
H	0.1939067	-4.8236366	-0.7958865
C	-0.1411188	-2.7515048	-1.0648635
C	-0.6396902	-2.8821555	-2.4866476
H	-0.0493924	-2.2734395	-3.1829804
H	-0.5801536	-3.9229939	-2.8107224
H	-1.6853892	-2.5623319	-2.5764656
C	-0.5102721	0.8538761	-0.1748159
C	-0.5866759	-0.2430603	-1.2549722
C	0.4479082	-1.1659166	0.7589336
C	0.6275621	0.3781076	0.7529362
H	-0.3181416	1.8433202	-0.5996410
H	-1.4504716	0.8911545	0.3830833
H	0.0437759	0.0048592	-2.1220547
H	-1.6120585	-0.3828785	-1.6126000
H	1.4099002	-1.6838548	0.8930541
H	0.5746786	0.8153715	1.7544028
H	1.6080485	0.6194560	0.3264229
C	3.7136184	-0.9326521	-2.6500337
H	4.5462407	-1.4740308	-2.1619435
O	2.9539521	-0.2272362	-1.9767524
C	3.5997228	-1.1269286	-4.1360898
H	3.4697244	-2.1923049	-4.3687281
H	2.7552921	-0.5589891	-4.5322693
H	4.5256663	-0.8052112	-4.6310038
