31
-0.00417347 (energy)
C	2.1405814	0.0127049	2.5002418
O	3.1915518	0.5095110	2.1151012
O	1.3873639	0.6611624	3.4691832
H	0.5418791	0.2081867	3.6643676
N	1.8045163	-1.6001016	0.6339623
C	0.0565459	-0.0575015	-0.0161196
H	-0.1251812	0.3011077	0.9894050
H	-0.5481016	0.3835524	-0.7974717
C	1.0087095	-0.9699559	-0.3255863
C	1.2649363	-1.3806891	-1.7583317
H	1.1671984	-2.4649482	-1.8950636
H	0.5517495	-0.8888246	-2.4226716
H	2.2745392	-1.0987544	-2.0824540
C	3.5976266	-2.7128873	1.7206122
C	2.9289276	-2.5155223	0.3459365
C	1.6129780	-1.3641910	2.0549004
C	2.4466315	-2.4923047	2.7247537
H	4.0578752	-3.7000045	1.8214135
H	4.3692377	-1.9520928	1.8703597
H	2.5668563	-3.4705292	-0.0634925
H	3.6239962	-2.0796739	-0.3791648
H	0.5449272	-1.4466729	2.3081610
H	2.7971525	-2.2236596	3.7257015
H	1.8238388	-3.3902203	2.8107372
C	2.9529251	4.4926510	0.4965182
H	3.1597626	4.5171135	1.5833497
O	2.7057089	5.5404097	-0.1110161
C	2.9988510	3.1315794	-0.1394480
H	2.2696728	2.4655642	0.3409371
H	2.7840361	3.2014062	-1.2078841
H	3.9879731	2.6784698	0.0093554
