31
-0.00387306 (energy)
C	0.8126771	2.3277946	-0.4852314
O	-0.2309114	2.8855796	-0.1698154
O	1.7273644	2.9865060	-1.2952486
H	2.5488306	2.4745679	-1.4409929
N	0.7880889	0.5281854	1.2346191
C	2.5704007	1.8321351	2.2249230
H	2.8995873	2.2612542	1.2867343
H	3.1131743	2.1411173	3.1084189
C	1.5148014	0.9902988	2.3343762
C	1.0568803	0.4779713	3.6815740
H	1.0460200	-0.6185693	3.7182718
H	1.7251889	0.8375663	4.4664108
H	0.0433476	0.8243236	3.9195494
C	-0.9509264	-0.3058958	-0.1490278
C	-0.4356359	-0.2982453	1.3036461
C	1.1658801	0.8722989	-0.1256255
C	0.3254319	-0.1060600	-0.9932562
H	-1.4775045	-1.2315058	-0.3987309
H	-1.6324870	0.5353488	-0.3052294
H	-0.2064032	-1.3164916	1.6520605
H	-1.1725346	0.1344671	1.9881872
H	2.2456455	0.7116964	-0.2670129
H	0.1199057	0.2841595	-1.9944652
H	0.8761423	-1.0477457	-1.1003188
C	0.7290032	0.6561256	-5.6915531
H	1.5813707	1.0611979	-6.2694535
O	0.9326411	0.0073613	-4.6592505
C	-0.6326931	0.9549421	-6.2533094
H	-0.7168907	0.5545156	-7.2724346
H	-1.4104787	0.5195245	-5.6224070
H	-0.7811996	2.0405101	-6.3261179
