31
-0.00794334 (energy)
C	-0.3394493	-2.4184921	-0.4824459
O	-1.5473999	-2.4680215	-0.2872783
O	0.2879072	-3.4434409	-1.1771294
H	1.2413940	-3.2788138	-1.3250800
N	0.0000000	0.0000000	0.0000000
C	0.2852634	0.1542408	-2.3984279
H	0.6397975	-0.8626496	-2.5122030
H	0.2102320	0.7386375	-3.3058908
C	-0.0968011	0.6863211	-1.2127318
C	-0.6511514	2.0906887	-1.1257802
H	-0.0766122	2.7130709	-0.4283484
H	-0.6229648	2.5664189	-2.1080225
H	-1.6934798	2.0904504	-0.7831547
C	-0.3660202	-0.7383061	2.2260454
C	-0.5033059	0.4874625	1.3016598
C	0.5897431	-1.3256751	0.0787042
C	0.7972369	-1.5395805	1.6043230
H	-0.1720565	-0.4562277	3.2648908
H	-1.2835837	-1.3329101	2.1922900
H	0.0982913	1.3332651	1.6669876
H	-1.5438782	0.8203091	1.2290062
H	1.5464941	-1.3434498	-0.4653439
H	0.7903110	-2.5957658	1.8895531
H	1.7651198	-1.1141811	1.8937264
C	2.7687270	-2.3517649	-4.6244571
H	3.1413446	-1.4722741	-5.1832370
O	2.9101191	-2.4121587	-3.3979283
C	2.1070143	-3.4135694	-5.4573950
H	2.8065295	-3.7885518	-6.2164164
H	1.7714960	-4.2399480	-4.8272342
H	1.2501119	-2.9900256	-5.9978969
