31
-0.00774654 (energy)
C	0.3394494	-2.1627827	-1.1850015
O	1.5474001	-2.0752731	-1.3663454
O	-0.2879070	-3.3944731	-1.3116673
H	-1.2413938	-3.3634623	-1.0925103
N	0.0000000	0.0000000	0.0000000
C	-0.2852634	-1.4235243	1.9364466
H	-0.6397974	-2.2756407	1.3699589
H	-0.2102320	-1.5591562	3.0072465
C	0.0968011	-0.2537763	1.3701652
C	0.6511513	0.8779232	2.2062664
H	0.0766120	1.8029961	2.0720620
H	0.6229647	0.6109806	3.2645012
H	1.6934797	1.0979761	1.9436469
C	0.3660202	0.8652989	-2.1798238
C	0.5033059	1.2101087	-0.6837946
C	-0.5897430	-0.9649361	-0.9124183
C	-0.7972368	-0.1481484	-2.2186060
H	0.1720564	1.7491404	-2.7943091
H	1.2835838	0.3881082	-2.5361697
H	-0.0982914	2.0928593	-0.4199806
H	1.5438781	1.4183833	-0.4141890
H	-1.5464940	-1.3282597	-0.5070786
H	-0.7903109	-0.7738911	-3.1160077
H	-1.7651198	0.3637513	-2.1668605
C	-4.9169091	-2.9954684	-2.1968492
H	-4.7491260	-2.3423630	-3.0742801
O	-4.0187617	-3.1556981	-1.3627809
C	-6.2736642	-3.6375666	-2.1193663
H	-6.4535574	-4.2491751	-3.0135812
H	-6.3509456	-4.2613637	-1.2263481
H	-7.0555983	-2.8668399	-2.1000568
