31
-0.0041727 (energy)
C	2.4870134	-0.1025675	-0.0364372
O	2.7114322	0.8142547	0.7437945
O	3.4909148	-1.0135612	-0.3346886
H	3.1909816	-1.7354249	-0.9238249
N	0.0000000	0.0000000	0.0000000
C	0.2110299	-2.0400178	1.2850742
H	1.1551497	-2.3289944	0.8402874
H	-0.1875309	-2.7082050	2.0369475
C	-0.4414274	-0.8929744	0.9792160
C	-1.7220559	-0.5072157	1.6851155
H	-2.5447064	-0.3456232	0.9773020
H	-2.0203624	-1.2960956	2.3783655
H	-1.5994188	0.4177266	2.2624217
C	0.3989262	1.9712423	-1.2607166
C	-0.6079624	1.3145539	-0.2959471
C	1.1698341	-0.2817983	-0.8145450
C	1.0803625	0.7723014	-1.9534878
H	-0.0859810	2.6457902	-1.9722222
H	1.1407064	2.5396957	-0.6921755
H	-1.5952019	1.1968789	-0.7674091
H	-0.7376546	1.9093523	0.6141358
H	1.1139724	-1.3080108	-1.2088091
H	2.0571255	1.0217904	-2.3784831
H	0.4502285	0.3737208	-2.7569683
C	7.6247157	0.7256890	1.4945838
H	7.8348084	-0.0997223	2.2010823
O	8.4916059	1.5744639	1.2577409
C	6.2528464	0.7171880	0.8805964
H	5.4871807	0.7648539	1.6664277
H	6.1334067	1.5627718	0.1999357
H	6.0890967	-0.2217018	0.3351742
