31
-0.00345728 (energy)
C	-1.1293961	-2.0325539	-0.9527385
O	-2.2061082	-1.8384103	-0.4025680
O	-0.8153383	-3.3004598	-1.4222741
H	0.0424575	-3.3335714	-1.8926129
N	-0.5367003	0.3393437	-1.4216704
C	-1.0523208	-0.2731125	-3.7056702
H	-0.8033192	-1.3190650	-3.5764937
H	-1.3952356	0.0186284	-4.6895070
C	-0.9961378	0.6394769	-2.7061792
C	-1.4242065	2.0728570	-2.9281974
H	-0.6231218	2.7804027	-2.6801886
H	-1.6995927	2.2242859	-3.9737333
H	-2.2937834	2.3323525	-2.3114812
C	-0.1815104	0.3621537	0.9251709
C	-0.5586293	1.2627697	-0.2675221
C	-0.0168867	-0.9758568	-1.0878335
C	0.6723535	-0.7542342	0.2877222
H	0.3575327	0.9082447	1.7046626
H	-1.0855869	-0.0695729	1.3643451
H	0.1688040	2.0778396	-0.3989287
H	-1.5480279	1.7121914	-0.1334821
H	0.7046704	-1.2994092	-1.8535659
H	0.7104619	-1.6636652	0.8946940
H	1.7003324	-0.4134162	0.1185517
C	5.1790194	-0.0759955	0.9747299
H	4.9689266	-1.1005467	1.3363079
O	4.3121293	0.5535039	0.3580904
C	6.5508886	0.4514828	1.2890858
H	7.3165543	-0.2052343	0.8548905
H	6.6703283	1.4637441	0.8971191
H	6.7146381	0.4543875	2.3748993
