31
-0.00350536 (energy)
C	1.1622375	-0.8045206	-2.0491545
O	2.3024313	-0.4793083	-1.7427505
O	0.9592008	-1.7167098	-3.0754919
H	0.0165529	-1.9481765	-3.2018511
N	0.0000000	0.0000000	0.0000000
C	-0.1775665	-2.3631188	0.4916927
H	-0.1614491	-2.6721556	-0.5460653
H	-0.2500037	-3.1551593	1.2252203
C	-0.0681807	-1.0734031	0.8912254
C	-0.0254509	-0.7078981	2.3580906
H	-0.8163958	0.0046650	2.6236581
H	-0.1538385	-1.6020508	2.9712148
H	0.9337487	-0.2498124	2.6299991
C	0.4604184	2.1138614	-0.9767033
C	0.2314566	1.4108433	0.3757709
C	-0.1123321	-0.1950331	-1.4355310
C	-0.3258724	1.2448724	-1.9808703
H	0.1214430	3.1537667	-0.9676084
H	1.5249278	2.0969006	-1.2279964
H	-0.6404438	1.8286304	0.9011368
H	1.1014789	1.5123147	1.0327496
H	-0.9730855	-0.8435114	-1.6597107
H	0.0194444	1.3636072	-3.0121753
H	-1.3958575	1.4808504	-1.9498489
C	5.2102792	-1.5913976	-5.5558564
H	5.3061066	-0.6345367	-6.1034119
O	5.3283611	-2.6644882	-6.1579738
C	4.9364048	-1.4684279	-4.0831211
H	4.0057064	-0.9094757	-3.9175320
H	4.8575333	-2.4566568	-3.6251258
H	5.7390229	-0.8988599	-3.5960791
