31
-0.00766403 (energy)
C	-0.8126770	0.7436749	2.2585449
O	0.2309115	1.2957257	2.5838928
O	-1.7273643	0.3715353	3.2340143
H	-2.5488305	-0.0106520	2.8635352
N	-0.7880888	1.3333042	-0.1598877
C	-2.5704005	2.8429076	0.4742137
H	-2.8995871	2.2449720	1.3149362
H	-3.1131741	3.7625286	0.3000521
C	-1.5148013	2.5167785	-0.3095645
C	-1.0568802	3.4273222	-1.4268521
H	-1.0460199	2.9108329	-2.3948330
H	-1.7251887	4.2868082	-1.5078522
H	-0.0433474	3.8065910	-1.2458900
C	0.9509264	-0.2820099	-0.1903996
C	0.4356359	0.9798679	-0.9101112
C	-1.1658800	0.3273547	0.8182457
C	-0.3254319	-0.9132150	0.4047776
H	1.4775044	-0.9610642	-0.8671498
H	1.6324870	0.0033380	0.6162403
H	0.2064032	0.7724803	-1.9661455
H	1.1725346	1.7890540	-0.8776419
H	-2.2456454	0.1246084	0.7498537
H	-0.1199057	-1.5851776	1.2433221
H	-0.8761423	-1.4767769	-0.3572148
C	3.2660417	2.4950374	1.9079212
H	3.2400429	1.7710400	2.7444226
O	3.4741256	2.1021513	0.7545116
C	3.0356867	3.9306907	2.2885973
H	3.7916529	4.2542629	3.0165142
H	3.0782057	4.5718689	1.4056141
H	2.0583134	4.0396178	2.7771560
