31
-0.0062237 (energy)
C	1.3701757	-1.6424041	1.3189575
O	0.6086774	-2.5878792	1.1580675
O	2.2862886	-1.6664329	2.3614742
H	2.8816554	-0.8894905	2.3667178
N	1.1081411	-0.5893197	-0.9214520
C	3.3385457	-1.4565346	-1.2831914
H	3.6145445	-1.4338058	-0.2362850
H	4.0911927	-1.8241089	-1.9680636
C	2.1159741	-1.0985026	-1.7437237
C	1.7643030	-1.2184254	-3.2096907
H	1.4355801	-0.2595337	-3.6296120
H	2.6330340	-1.5578600	-3.7771449
H	0.9551789	-1.9417835	-3.3706626
C	-1.0096696	-0.0020354	-0.0246134
C	-0.2747670	-0.2889746	-1.3487843
C	1.3324590	-0.3428943	0.4928894
C	0.1045344	0.5140403	0.9102459
H	-1.8213568	0.7207697	-0.1475227
H	-1.4276639	-0.9300583	0.3762236
H	-0.3013789	0.5838839	-2.0182434
H	-0.7219932	-1.1353392	-1.8803026
H	2.2753577	0.2076119	0.6327525
H	-0.1442316	0.4109006	1.9706276
H	0.3247985	1.5694313	0.7123827
C	3.9827837	0.3407256	5.0729952
H	4.1137239	-0.7397520	4.8729812
O	3.9188784	1.1415957	4.1335616
C	3.8943864	0.7231644	6.5238585
H	4.8026846	0.4065965	7.0537888
H	3.7663324	1.8027165	6.6275225
H	3.0522591	0.2041019	7.0005229
