31
-0.0032041 (energy)
C	-0.0360935	0.6039061	-3.9395757
O	1.0343796	1.1982368	-3.9161967
O	-0.3181663	-0.2647030	-4.9848674
H	-1.1738825	-0.7278551	-4.8782448
N	-0.6853591	0.9467186	-1.5609170
C	-0.1500406	-1.4054224	-1.3647316
H	-0.3737759	-1.6349465	-2.3991233
H	0.1877940	-2.2321343	-0.7539506
C	-0.2305910	-0.1594585	-0.8393329
C	0.1629239	0.1135488	0.5951448
H	-0.6556878	0.5751396	1.1614265
H	0.4368003	-0.8188006	1.0927692
H	1.0245884	0.7902997	0.6533098
C	-1.0460717	3.1631153	-2.3302133
C	-0.6884191	2.3428873	-1.0751614
C	-1.1737112	0.8175989	-2.9233582
C	-1.8711160	2.1812504	-3.1886944
H	-1.5999373	4.0745683	-2.0875687
H	-0.1327014	3.4423592	-2.8634990
H	-1.4351996	2.4834001	-0.2793343
H	0.2894496	2.6291607	-0.6743168
H	-1.8855181	-0.0194873	-2.9888915
H	-1.8883786	2.4498163	-4.2491216
H	-2.9067216	2.1249706	-2.8339129
C	4.5064293	0.8704652	-1.2446780
H	4.6861002	-0.1295496	-1.6831659
O	3.5907673	1.0348145	-0.4306973
C	5.4356536	1.9563759	-1.7098857
H	5.3701542	2.0678224	-2.8004527
H	5.1870413	2.9045071	-1.2284132
H	6.4753598	1.6874723	-1.4807235
