31
-0.00327567 (energy)
C	1.9420732	-0.9504194	1.2804593
O	1.9751968	-2.0134369	0.6733473
O	2.5427027	-0.8514723	2.5279107
H	2.5063731	0.0530341	2.9003044
N	1.3247892	0.5282536	-0.6246838
C	3.6227216	1.2644260	-0.4371229
H	3.7029066	1.0399928	0.6192413
H	4.5084099	1.6696748	-0.9082573
C	2.5109393	1.0225715	-1.1722451
C	2.4810869	1.2910121	-2.6602511
H	1.6691418	1.9761501	-2.9344723
H	3.4247816	1.7374188	-2.9797426
H	2.3371310	0.3659156	-3.2323645
C	-0.7694160	-0.5542754	-0.3475922
C	0.1229934	0.1419239	-1.3938983
C	1.1827668	0.3020246	0.8036214
C	-0.3469215	0.0953152	0.9870527
H	-1.8350372	-0.4247651	-0.5575174
H	-0.5469001	-1.6250424	-0.3239053
H	-0.3752071	1.0256863	-1.8199570
H	0.3754933	-0.5329879	-2.2182732
H	1.5409751	1.1816139	1.3601160
H	-0.5905562	-0.5194847	1.8586001
H	-0.8241901	1.0737218	1.1153160
C	5.8996517	2.7370014	2.9559399
H	6.0445393	3.3920397	2.0758744
O	5.2815940	1.6726434	2.8412280
C	6.4962946	3.2395807	4.2406613
H	6.0712071	4.2193127	4.4965378
H	6.3065075	2.5338364	5.0521307
H	7.5784059	3.3846038	4.1231162
