31
-0.00252864 (energy)
C	-2.3691239	-0.7604202	-0.0780819
O	-2.1740257	-1.8996233	-0.4828551
O	-3.5909039	-0.4331156	0.4935882
H	-3.6221133	0.4846867	0.8324003
N	0.0000000	0.0000000	0.0000000
C	-0.3101008	-0.1833913	2.3932879
H	-1.3773490	-0.0029767	2.3595698
H	0.1145181	-0.3574953	3.3730965
C	0.4750461	-0.2423946	1.2910079
C	1.9481984	-0.5684118	1.3941986
H	2.5713135	0.2148310	0.9446162
H	2.2367158	-0.6724430	2.4419814
H	2.1875582	-1.5105762	0.8854021
C	-0.2718087	-0.0102806	-2.3580413
C	0.7827587	-0.1594831	-1.2438283
C	-1.3746498	0.4044707	-0.2411372
C	-1.3572400	0.8823339	-1.7202132
H	0.1457355	0.4253363	-3.2703378
H	-0.6949224	-0.9891601	-2.6017335
H	1.5610657	0.6142364	-1.3235907
H	1.2738379	-1.1372414	-1.2848900
H	-1.6510643	1.2207212	0.4437037
H	-2.3315976	0.7868376	-2.2085158
H	-1.0632482	1.9379315	-1.7484770
C	5.1829401	2.1897575	-1.1822316
H	4.7933158	1.9536121	-2.1907013
O	4.6877604	1.6525931	-0.1851039
C	6.3155577	3.1769950	-1.1420148
H	6.0045050	4.1271948	-1.5963423
H	6.6356352	3.3498496	-0.1123312
H	7.1620942	2.8047633	-1.7341575
