31
-0.00462615 (energy)
C	0.4606782	-0.0640598	0.1115939
O	-0.1460980	0.2683287	1.1220536
O	-0.2224719	-0.1944562	-1.0896487
H	0.3642546	-0.4096609	-1.8430195
N	2.7702044	0.4071852	0.9122816
C	2.6170864	2.2835479	-0.6087179
H	1.9085401	1.8035850	-1.2722712
H	2.9154548	3.2890152	-0.8745186
C	3.0902094	1.7101476	0.5236799
C	4.0241713	2.4568890	1.4495339
H	4.9619900	1.9103843	1.6098300
H	4.2681220	3.4339370	1.0278955
H	3.5676360	2.6209373	2.4336600
C	2.3562599	-1.5384720	2.2074313
C	3.1658372	-0.2269698	2.1876549
C	1.9500884	-0.4553562	0.0787123
C	2.1420486	-1.8612221	0.7135463
H	2.8766363	-2.3405579	2.7387097
H	1.3896661	-1.3704017	2.6912340
H	4.2480141	-0.4245693	2.2124231
H	2.9195459	0.4091998	3.0440922
H	2.3131012	-0.4284077	-0.9601199
H	1.2915937	-2.5263656	0.5367914
H	3.0351814	-2.3267721	0.2810035
C	-1.2143939	-3.4625755	-2.3532757
H	-1.3970370	-2.4174580	-2.6678450
O	-0.0574248	-3.8849365	-2.2481767
C	-2.4459504	-4.2795010	-2.0794526
H	-3.0790035	-4.3202957	-2.9759048
H	-2.1731251	-5.2925435	-1.7763222
H	-3.0448748	-3.8066123	-1.2898456
