31
-0.00246312 (energy)
C	-2.7219136	0.0288039	1.8503556
O	-2.7153339	-0.9589503	2.5742249
O	-2.6271371	1.2944185	2.4124216
H	-2.5860410	2.0085865	1.7442870
N	-2.2135667	-1.1068560	-0.3057854
C	-0.0495884	-0.0589568	-0.0287887
H	-0.4261768	0.7715892	0.5552315
H	1.0166169	-0.0696002	-0.2124494
C	-0.8283019	-1.0707147	-0.4814580
C	-0.2345550	-2.2416103	-1.2321783
H	-0.6985511	-2.3711146	-2.2179787
H	0.8365772	-2.0891094	-1.3782362
H	-0.3673844	-3.1809822	-0.6810181
C	-4.4504754	-1.8584911	-0.0496043
C	-3.0942796	-2.2341071	-0.6784844
C	-2.9291434	-0.0104897	0.3245612
C	-4.4183476	-0.3163471	0.0004562
H	-5.2969716	-2.2411826	-0.6269962
H	-4.5121137	-2.2597538	0.9661738
H	-3.1732471	-2.3299289	-1.7718041
H	-2.7181476	-3.1833450	-0.2831008
H	-2.6090498	0.9473183	-0.1134122
H	-5.1081041	0.1026056	0.7391349
H	-4.6638369	0.1129031	-0.9778053
C	4.4177485	0.5302802	0.8771989
H	3.8572295	1.0599177	1.6708522
O	3.8096801	-0.0469214	-0.0311531
C	5.9148162	0.5770580	1.0024116
H	6.2273220	0.1416569	1.9609588
H	6.3843627	0.0316712	0.1810371
H	6.2615755	1.6189618	0.9995911
