31
-0.00498507 (energy)
C	1.3592117	-0.3839645	2.9729739
O	2.5569297	-0.1420264	2.8915733
O	0.5401146	0.4427005	3.7295361
H	-0.4051051	0.1926846	3.6828423
N	1.1778144	-1.9381213	1.0367985
C	0.0447177	-0.0689788	-0.0024415
H	-0.3106611	0.3505065	0.9305339
H	-0.2217848	0.4708119	-0.9014635
C	0.8199401	-1.1772165	-0.0785827
C	1.3457994	-1.6765920	-1.4056883
H	1.0514096	-2.7164070	-1.5953866
H	0.9578166	-1.0599200	-2.2187680
H	2.4414191	-1.6332648	-1.4454492
C	2.3334400	-3.3851191	2.5217469
C	2.1086271	-3.0864828	1.0263807
C	0.6774019	-1.6237845	2.3642718
C	1.0372650	-2.8871723	3.1953386
H	2.5225080	-4.4458303	2.7102542
H	3.1865409	-2.8084707	2.8909512
H	1.6657082	-3.9502514	0.5082183
H	3.0475761	-2.8358352	0.5219932
H	-0.4107259	-1.4618834	2.3262881
H	1.1634566	-2.6725582	4.2606780
H	0.2320999	-3.6232420	3.0884417
C	2.8158635	3.4357907	4.1973662
H	2.4432459	2.4028849	4.3346419
O	2.6744713	4.2704527	5.0981214
C	3.4775762	3.7137780	2.8767840
H	2.7780610	3.5131416	2.0543059
H	3.8130944	4.7518803	2.8283292
H	4.3344786	3.0418967	2.7349844
