31
-0.0024393 (energy)
C	-2.4870134	-0.0180731	-0.1073367
O	-2.7114322	0.5911008	0.9310427
O	-3.4909148	-0.1536012	-1.0562811
H	-3.1909816	-0.6084369	-1.8694805
N	0.0000000	0.0000000	0.0000000
C	-0.2110298	1.6197962	-1.7858747
H	-1.1551496	1.2319468	-2.1476976
H	0.1875309	2.4762762	-2.3133494
C	0.4414274	1.1194028	-0.7093692
C	1.7220559	1.7475920	-0.2068929
H	2.5447064	1.0224715	-0.1706658
H	2.0203623	2.5672974	-0.8634064
H	1.5994187	2.1555132	0.8042456
C	-0.3989262	-1.5838659	1.7223737
C	0.6079623	-0.5197207	1.2431923
C	-1.1698341	-0.7532365	-0.4189613
C	-1.0803625	-2.0579186	0.4213491
H	0.0859809	-2.4016961	2.2631223
H	-1.1407065	-1.1226731	2.3809171
H	1.5952019	-0.9635860	1.0454366
H	0.7376545	0.2732504	1.9869885
H	-1.1139723	-0.9633111	-1.4980466
H	-2.0571254	-2.5197806	0.5932481
H	-0.4502284	-2.7799797	-0.1106990
C	3.2782238	4.7123682	-3.9240561
H	4.3196317	5.0348650	-4.1139198
O	3.0528696	3.7525942	-3.1783607
C	2.2161396	5.5126860	-4.6244464
H	2.3704060	5.4755050	-5.7111231
H	1.2239274	5.1268271	-4.3811267
H	2.2837978	6.5686088	-4.3307413
