31
-0.00218103 (energy)
C	-3.8554265	0.1840410	0.9940210
O	-3.8480904	-0.9477814	1.4615813
O	-4.5791697	1.1852554	1.6268296
H	-4.4730921	2.0612704	1.2031860
N	-1.8823874	-0.0385424	-0.5075305
C	-0.8156195	1.3747405	1.1423966
H	-1.7344048	1.8528729	1.4585106
H	0.0867281	1.6915867	1.6483763
C	-0.7630648	0.3987142	0.2045432
C	0.5408024	-0.2827132	-0.1457426
H	0.7672236	-0.2033813	-1.2163994
H	1.3629080	0.1724741	0.4100095
H	0.5163097	-1.3502968	0.1062614
C	-3.4034797	-1.3694131	-1.7522819
C	-1.9036557	-1.1712518	-1.4571472
C	-3.1845239	0.5825311	-0.3339970
C	-4.0104840	0.0320140	-1.5302591
H	-3.5821094	-1.7478287	-2.7628675
H	-3.8324422	-2.0754826	-1.0352929
H	-1.3441891	-0.9300715	-2.3734414
H	-1.4593261	-2.0702448	-1.0175577
H	-3.0868227	1.6779468	-0.3808551
H	-5.0852781	0.0059719	-1.3275990
H	-3.8430379	0.6744952	-2.4024380
C	4.1800081	1.5148376	2.2734533
H	4.6439472	0.6225958	2.7352410
O	3.7429157	1.4584512	1.1185581
C	4.1340735	2.7413174	3.1410451
H	5.1501152	3.0282315	3.4433469
H	3.6621426	3.5693012	2.6078465
H	3.5766333	2.5307022	4.0633872
