31
-0.00515167 (energy)
C	-0.5813322	0.5591740	3.1910557
O	0.4762179	0.4779334	3.8031636
O	-1.2397731	1.7786759	3.1139077
H	-2.0441618	1.7455679	2.5571391
N	-0.4090504	-1.5623320	1.9000812
C	0.0069576	-0.0720867	0.0389719
H	-0.5513580	0.7549382	0.4597077
H	0.4685153	0.1033855	-0.9237390
C	0.1804075	-1.2576270	0.6709272
C	1.0303812	-2.3520540	0.0652149
H	0.4686473	-3.2874664	-0.0502170
H	1.3883267	-2.0469223	-0.9200177
H	1.9071548	-2.5704724	0.6876314
C	-0.8528488	-2.5027948	4.0338379
C	-0.1653520	-2.7912111	2.6847609
C	-1.3161653	-0.6377132	2.5585859
C	-1.9717160	-1.5038591	3.6705061
H	-1.2390963	-3.4105181	4.5063220
H	-0.1428761	-2.0292267	4.7181538
H	-0.6063907	-3.6700705	2.1909424
H	0.9058485	-2.9784238	2.8125768
H	-2.0641226	-0.2700018	1.8395413
H	-2.3109515	-0.9112995	4.5253300
H	-2.8399980	-2.0237800	3.2494539
C	2.8101988	1.5234126	1.3081836
H	2.3364606	0.6110013	1.7176475
O	3.4320274	1.4732636	0.2410255
C	2.6344409	2.7680804	2.1321916
H	3.0473612	2.6161854	3.1384081
H	3.1315849	3.6155235	1.6554685
H	1.5663688	2.9898315	2.2581350
