31
-0.00454425 (energy)
C	-1.1293961	2.0325538	0.9527386
O	-2.2061082	1.8384103	0.4025681
O	-0.8153383	3.3004597	1.4222742
H	0.0424575	3.3335713	1.8926131
N	-0.5367003	-0.3393438	1.4216704
C	-1.0523208	0.2731123	3.7056702
H	-0.8033192	1.3190648	3.5764938
H	-1.3952356	-0.0186286	4.6895070
C	-0.9961378	-0.6394771	2.7061792
C	-1.4242065	-2.0728571	2.9281972
H	-0.6231218	-2.7804028	2.6801885
H	-1.6995927	-2.2242861	3.9737332
H	-2.2937834	-2.3323526	2.3114811
C	-0.1815104	-0.3621537	-0.9251709
C	-0.5586293	-1.2627697	0.2675221
C	-0.0168867	0.9758567	1.0878336
C	0.6723535	0.7542343	-0.2877222
H	0.3575327	-0.9082446	-1.7046626
H	-1.0855869	0.0695730	-1.3643451
H	0.1688040	-2.0778396	0.3989286
H	-1.5480279	-1.7121914	0.1334820
H	0.7046704	1.2994091	1.8535660
H	0.7104619	1.6636652	-0.8946939
H	1.7003324	0.4134162	-0.1185517
C	3.2884798	0.6886920	3.0756918
H	3.2624810	-0.4036150	3.2511124
O	3.4965635	1.1291213	1.9395865
C	3.0581251	1.5437722	4.2901269
H	3.8140914	1.3237468	5.0557317
H	3.1006440	2.6025139	4.0258640
H	2.0807518	1.3131758	4.7344017
