31
-0.00530484 (energy)
C	-0.5173172	-0.8367742	2.3122961
O	-1.7286276	-0.6780640	2.2272860
O	0.0770233	-0.9402912	3.5623861
H	1.0381249	-1.1199825	3.5163077
N	-0.0871130	-1.5542571	-0.0323203
C	0.2340693	-3.7268972	0.9845860
H	0.5488911	-3.3319577	1.9425083
H	0.1939067	-4.8049450	0.9018922
C	-0.1411188	-2.9497735	-0.0595743
C	-0.6396902	-3.5588238	-1.3509292
H	-0.0493924	-3.2249777	-2.2134611
H	-0.5801536	-4.6477320	-1.2994722
H	-1.6853892	-3.2890075	-1.5447166
C	-0.5102721	0.7425905	-0.4563160
C	-0.5866759	-0.6576278	-1.0961566
C	0.4479082	-0.8360326	1.1119312
C	0.6275621	0.6128243	0.5782082
H	-0.3181416	1.5270651	-1.1939308
H	-1.4504716	0.9684335	0.0551878
H	0.0437759	-0.7212193	-1.9957411
H	-1.6120585	-0.9113297	-1.3843961
H	1.4099002	-1.2768634	1.4151086
H	0.5746786	1.3662396	1.3697259
H	1.6080485	0.6937414	0.0948708
C	4.0515460	-3.0538287	-0.0137635
H	3.8932997	-3.0611528	-1.1089746
O	3.9909569	-1.9907261	0.6140533
C	4.3332690	-4.3932208	0.6073153
H	5.2308675	-4.8371801	0.1564671
H	4.4755002	-4.2924015	1.6853610
H	3.5034875	-5.0841212	0.4074839
