31
-0.00223487 (energy)
C	1.5064483	2.1214093	2.0158609
O	0.7189074	3.0125274	2.3080529
O	1.9577309	1.2521449	2.9994283
H	2.5385399	0.5459860	2.6499584
N	1.1778142	2.1511284	-0.4515669
C	0.0144199	0.0684981	-0.0431715
H	0.5775432	-0.1753821	0.8490839
H	-0.7492382	-0.6402135	-0.3350487
C	0.1932187	1.2076288	-0.7540657
C	-0.6721439	1.5281449	-1.9522019
H	-0.0719633	1.6941196	-2.8555853
H	-1.3608440	0.7040907	-2.1485191
H	-1.2704506	2.4325276	-1.7849844
C	2.3906377	4.1815778	-0.2498774
C	1.3447553	3.4584491	-1.1211175
C	2.1337028	1.9355937	0.6213857
C	3.2084032	3.0311627	0.3742630
H	3.0116287	4.8697175	-0.8305874
H	1.8880196	4.7479931	0.5395306
H	1.7032930	3.3313743	-2.1536235
H	0.4011351	4.0126172	-1.1576491
H	2.5624422	0.9246958	0.5442819
H	3.7325991	3.3252490	1.2884093
H	3.9498169	2.6469604	-0.3358148
C	4.1355803	-1.9448491	-1.5303129
H	4.4613065	-2.5455879	-0.6599118
O	3.4783902	-0.9119430	-1.3593795
C	4.5477943	-2.4778087	-2.8738574
H	4.1494948	-3.4912567	-3.0164320
H	4.1857112	-1.8255316	-3.6713580
H	5.6416543	-2.5565270	-2.9294185
