31
-0.00241256 (energy)
C	1.6052532	1.9258843	0.1692735
O	2.4174997	1.3411836	0.8750136
O	1.6093580	3.3130470	0.1198369
H	0.9583310	3.6760382	-0.5146155
N	0.9215538	0.0020812	-1.2550230
C	2.2117858	1.1540986	-2.9478842
H	2.0586375	2.1383716	-2.5230815
H	2.8160921	1.1090849	-3.8442244
C	1.7310080	0.0155587	-2.3933233
C	2.0369426	-1.3386359	-2.9930517
H	1.1216936	-1.8938047	-3.2338271
H	2.6140359	-1.2199591	-3.9121778
H	2.6255136	-1.9586788	-2.3053224
C	-0.1691442	-0.6581418	0.7471829
C	0.4632037	-1.2109329	-0.5452576
C	0.4796449	1.2327890	-0.6213980
C	-0.6360490	0.7586370	0.3516020
H	-0.9900833	-1.2837597	1.1091928
H	0.5897644	-0.5911418	1.5321574
H	-0.2734718	-1.7659612	-1.1452731
H	1.2972823	-1.8857699	-0.3267075
H	0.0855532	1.9251732	-1.3809852
H	-0.7605530	1.4240567	1.2110478
H	-1.5875310	0.7205862	-0.1913072
C	6.4455295	-1.1563310	0.7483204
H	6.6556222	-1.9954274	0.0581312
O	7.3124197	-0.7756980	1.5430732
C	5.0736602	-0.5531476	0.6333308
H	4.3079945	-1.3187633	0.8167307
H	4.9542205	0.2640064	1.3478727
H	4.9099105	-0.1790482	-0.3860068
