31
-0.00449176 (energy)
C	-0.2995780	0.2622970	-0.2650181
O	0.8486546	0.6132403	-0.5060345
O	-0.5304998	-0.7522820	0.6536689
H	-1.4823234	-0.9164332	0.8124603
N	-1.4815426	2.2385076	-1.2108696
C	-1.8704543	2.7725294	1.1174754
H	-1.8339957	1.7435016	1.4528523
H	-2.0385191	3.5189320	1.8825084
C	-1.6749533	3.1486790	-0.1690895
C	-1.6670044	4.6077297	-0.5668594
H	-2.4087397	4.8215272	-1.3465937
H	-1.8937602	5.2335384	0.2985070
H	-0.6867780	4.9131041	-0.9538263
C	-0.8098884	1.2383649	-3.2560933
C	-1.1536770	2.5938714	-2.6078218
C	-1.5464187	0.8038973	-0.9893067
C	-1.6190890	0.2184184	-2.4274498
H	-1.0639513	1.2095395	-4.3195834
H	0.2597429	1.0362632	-3.1481114
H	-2.0111535	3.0698154	-3.1067980
H	-0.3078397	3.2874657	-2.6562179
H	-2.4460564	0.5547896	-0.4059766
H	-1.2205961	-0.7984047	-2.4923037
H	-2.6668836	0.1955480	-2.7485724
C	3.0096019	-0.6679431	3.3959623
H	2.5424641	-1.6603266	3.5427279
O	3.0827058	0.1281358	4.3387913
C	3.5215087	-0.3934528	2.0097139
H	2.7027615	-0.4733556	1.2821731
H	3.9642402	0.6033877	1.9560985
H	4.2703287	-1.1455679	1.7279252
