31
-0.00423483 (energy)
C	0.0016981	-0.4780538	0.0155876
O	1.1541163	-0.0771674	0.1200422
O	-1.0352447	0.4352252	-0.1161412
H	-1.9067966	0.0094694	-0.2475104
N	0.5003494	-2.8448278	-0.5733192
C	-0.2486158	-2.1651423	-2.7721145
H	-0.9013043	-1.3821671	-2.4065292
H	-0.2077377	-2.2907549	-3.8459807
C	0.5240319	-2.9332537	-1.9671433
C	1.4701722	-3.9646485	-2.5399926
H	1.2715866	-4.9666797	-2.1395387
H	1.3667129	-4.0061614	-3.6260343
H	2.5154309	-3.7213000	-2.3118334
C	1.1154388	-2.9320973	1.7176180
C	1.3983014	-3.5756131	0.3458598
C	-0.4191625	-1.9562795	0.1168875
C	-0.3385397	-2.4293467	1.5954102
H	1.2465683	-3.6376784	2.5430576
H	1.7876152	-2.0835342	1.8748946
H	1.1667480	-4.6512956	0.3533371
H	2.4479080	-3.4586412	0.0568967
H	-1.4344747	-2.0768905	-0.2908761
H	-0.5784681	-1.6352664	2.3087142
H	-1.0507214	-3.2490877	1.7448698
C	3.3260202	-0.2722687	4.5706176
H	3.7032356	-0.0480015	5.5864895
O	2.4091485	-1.0867572	4.4158057
C	4.0010884	0.4708586	3.4520815
H	5.0775229	0.2533025	3.4498441
H	3.5677354	0.1895737	2.4899689
H	3.8969878	1.5537696	3.6013469
