31
-0.004196 (energy)
C	0.4612680	0.0613196	-0.1106936
O	0.2547223	-1.1327395	0.0660837
O	-0.5820086	0.9671649	0.0223458
H	-0.2979689	1.8976671	-0.0854299
N	2.9439739	0.0231277	0.0676214
C	2.5307430	1.0968475	2.1969377
H	1.5955204	1.5482271	1.8898216
H	2.8433083	1.2901000	3.2145794
C	3.2722037	0.2921334	1.3984206
C	4.5347567	-0.3679042	1.9057897
H	5.4036073	-0.1171408	1.2844344
H	4.7427764	-0.0438502	2.9273721
H	4.4412359	-1.4610822	1.9132963
C	2.7436478	-1.0211530	-2.0545690
C	3.6514622	-0.9311950	-0.8121419
C	1.8045147	0.6535353	-0.5770682
C	2.0244750	0.3440010	-2.0844262
H	3.3095649	-1.2164464	-2.9699859
H	2.0104984	-1.8219480	-1.9210192
H	4.6532214	-0.5594025	-1.0748481
H	3.7696953	-1.9073279	-0.3304349
H	1.8149134	1.7367479	-0.3815713
H	1.0906938	0.3237422	-2.6541403
H	2.6702696	1.1180464	-2.5149134
C	-3.1322090	-2.3491551	3.0199989
H	-3.6377695	-2.7605289	2.1257042
O	-3.7192352	-2.3249638	4.1075775
C	-1.7329827	-1.8473502	2.7976575
H	-1.7322096	-1.0559642	2.0362415
H	-1.3128327	-1.4612866	3.7287889
H	-1.0980432	-2.6569139	2.4138974
