31
-0.00590921 (energy)
C	-0.4719621	-0.1013267	0.0837006
O	-0.2476806	-0.0545586	-1.1267698
O	0.5152638	0.1114550	1.0269478
H	1.3728334	0.3034933	0.5876393
N	-2.9385053	0.0708729	0.0113057
C	-2.5490322	2.3494045	0.7322611
H	-1.6447315	2.1162627	1.2807857
H	-2.8643493	3.3847387	0.7403225
C	-3.2689431	1.4278886	0.0485131
C	-4.5063468	1.8187230	-0.7288645
H	-5.3881787	1.2543042	-0.4002510
H	-4.7143986	2.8818064	-0.5924095
H	-4.3821105	1.6353479	-1.8035995
C	-2.7427283	-2.2037267	-0.6453432
C	-3.6384447	-0.9560777	-0.7872425
C	-1.7996090	-0.4577624	0.7475646
C	-2.0269969	-1.9938992	0.7058125
H	-3.3189986	-3.1331564	-0.6750717
H	-2.0082565	-2.2290416	-1.4566187
H	-4.6484535	-1.1439031	-0.3927190
H	-3.7390748	-0.6525765	-1.8349630
H	-1.7782670	-0.0779584	1.7740288
H	-1.0967270	-2.5621946	0.7955433
H	-2.6770479	-2.2744194	1.5422599
C	3.9406439	0.4047899	-1.9089441
H	3.7865460	1.4912201	-1.7657443
O	3.5106387	-0.3976492	-1.0727628
C	4.6857144	0.0166387	-3.1552532
H	5.6788891	0.4852472	-3.1627982
H	4.7914255	-1.0686363	-3.2150871
H	4.1546591	0.3852793	-4.0428893
