31
-0.00350157 (energy)
C	-0.4148720	0.1013267	-0.2400733
O	-0.6181216	0.0545585	0.9741056
O	0.8354264	-0.1114549	-0.7887847
H	1.4910259	-0.3034932	-0.0826636
N	-2.7574249	-0.0708729	-1.0156519
C	-2.1448587	-2.3494045	-1.5599209
H	-1.1074875	-2.1162627	-1.7660763
H	-2.4384027	-3.3847387	-1.6753409
C	-3.0552092	-1.4278886	-1.1636319
C	-4.4838671	-1.8187231	-0.8563528
H	-5.2001256	-1.2543042	-1.4667528
H	-4.6327015	-2.8818064	-1.0557366
H	-4.7347042	-1.6353480	0.1960590
C	-2.7980419	2.2037267	-0.3316440
C	-3.6882725	0.9560777	-0.5046554
C	-1.4353972	0.4577625	-1.3179835
C	-1.6633520	1.9938992	-1.3565205
H	-3.3497266	3.1331564	-0.5008043
H	-2.3853368	2.2290415	0.6819098
H	-4.5024353	1.1439031	-1.2208295
H	-4.1411753	0.6525764	0.4454623
H	-1.0642708	0.0779585	-2.2752448
H	-0.7584945	2.5621946	-1.1226687
H	-1.9881182	2.2744195	-2.3648544
C	3.6043244	-0.4047901	-2.5494071
H	3.7001518	-1.4912203	-2.3621387
O	3.7224063	0.3976491	-1.6165833
C	3.3304499	-0.0166389	-3.9753837
H	2.3997514	-0.4852475	-4.3221593
H	3.2515783	1.0686361	-4.0677645
H	4.1330679	-0.3852797	-4.6278572
