31
-0.00301071 (energy)
C	-0.5893170	-3.0437557	-1.1378155
O	0.5000592	-3.5183350	-1.4630263
O	-1.3387903	-3.5588056	-0.0973253
H	-0.8730214	-4.3182420	0.3169354
N	-0.4094668	-0.8688527	-2.3023667
C	0.0091300	0.0004117	-0.0814822
H	-0.5978043	-0.7425359	0.4211646
H	0.4890946	0.7376333	0.5490296
C	0.1948626	0.0330326	-1.4229045
C	1.0825444	1.0751702	-2.0664928
H	0.5414885	1.6605415	-2.8206690
H	1.4603165	1.7649970	-1.3092088
H	1.9460220	0.6171006	-2.5651863
C	-0.8915530	-2.2222584	-4.1942456
C	-0.1716084	-0.9294435	-3.7590665
C	-1.3235809	-1.8986468	-1.8306288
C	-1.9993357	-2.4035833	-3.1350671
H	-1.2901402	-2.1525876	-5.2106535
H	-0.1962637	-3.0668352	-4.1552533
H	-0.5935988	-0.0485749	-4.2660570
H	0.8981371	-0.9693173	-3.9914723
H	-2.0549029	-1.4893702	-1.1263589
H	-2.3569937	-3.4341622	-3.0550593
H	-2.8606538	-1.7623961	-3.3539557
C	2.9565127	-1.6929490	1.5072106
H	2.2730134	-1.4601873	0.6686204
O	3.8779521	-0.9186037	1.7889035
C	2.6721216	-2.9767410	2.2352750
H	2.7189797	-3.8243142	1.5385175
H	3.3916320	-3.1255048	3.0432050
H	1.6539247	-2.9602273	2.6461467
