31
-0.00306261 (energy)
C	-0.1634942	-0.3395516	-0.3130422
O	-1.0996516	0.3294245	0.1271945
O	1.1469948	-0.1139611	0.0629016
H	1.1953272	0.6234232	0.7103772
N	-1.4594616	-2.2442110	-1.2138586
C	-0.6403593	-3.4035547	0.7478156
H	0.2868273	-2.8462764	0.8003514
H	-0.7910365	-4.1612003	1.5058897
C	-1.5924579	-3.1866584	-0.1910341
C	-2.8843886	-3.9735140	-0.1940285
H	-3.0407169	-4.4949724	-1.1468273
H	-2.8702409	-4.7201813	0.6024259
H	-3.7530182	-3.3232753	-0.0303564
C	-1.9302479	-0.6757413	-2.9347836
C	-2.5009945	-1.9099088	-2.2066695
C	-0.2523946	-1.4445306	-1.3625785
C	-0.4022470	-0.8289241	-2.7809358
H	-2.2441287	-0.6303564	-3.9817935
H	-2.2655971	0.2390626	-2.4358524
H	-2.6643315	-2.7443364	-2.9053085
H	-3.4586620	-1.6834557	-1.7254736
H	0.6472204	-2.0628981	-1.2810332
H	0.1405970	0.1140715	-2.8927082
H	-0.0028878	-1.5383946	-3.5144656
C	3.1953663	3.2358905	-0.7216452
H	3.6751161	2.9749042	-1.6840948
O	3.2576121	2.4541844	0.2339033
C	2.4953828	4.5655468	-0.6882459
H	1.7116700	4.5990754	-1.4568271
H	2.0531155	4.7401556	0.2948554
H	3.2037786	5.3711702	-0.9226806
