31
-0.00305148 (energy)
C	1.5210461	-1.6002779	2.4559920
O	0.6869079	-1.7547851	3.3493392
O	2.0659413	-2.6636433	1.7617661
H	1.6866836	-3.5116870	2.0815815
N	1.1790132	0.8143535	2.0421109
C	0.0126786	0.0526912	0.0615286
H	0.6146499	-0.8395348	-0.0591262
H	-0.7656118	0.2121503	-0.6734840
C	0.1824317	0.9399301	1.0709668
C	-0.7122047	2.1519443	1.2083816
H	-0.1348740	3.0851399	1.2126426
H	-1.4172606	2.1936093	0.3757880
H	-1.2922442	2.1215969	2.1393754
C	2.4252446	0.9936613	4.0565775
C	1.3504793	1.7042870	3.2086613
C	2.1407994	-0.2777419	2.0119059
C	3.2285759	0.1739313	3.0247722
H	3.0507787	1.7003668	4.6098273
H	1.9473475	0.3216142	4.7764558
H	1.6861977	2.7049587	2.8972223
H	0.4149044	1.8231295	3.7659169
H	2.5535187	-0.4169139	1.0076006
H	3.7702713	-0.6669658	3.4673459
H	3.9543369	0.8058080	2.5004584
C	2.6778347	2.4604190	-1.3049574
H	1.9247289	2.0737533	-2.0176314
O	3.3787564	1.6748722	-0.6571634
C	2.7633248	3.9576342	-1.2043792
H	1.7924310	4.3717391	-0.9011807
H	3.5285234	4.2491732	-0.4818470
H	2.9991881	4.3891636	-2.1861960
