31
-0.00554217 (energy)
C	-0.4148720	-0.0131060	0.2602509
O	-0.6181216	-0.3844320	-0.8966997
O	0.8354264	0.3745137	0.7030953
H	1.4910259	0.3134630	-0.0261224
N	-2.7574249	0.4139722	0.9301606
C	-2.1448587	2.7412424	0.6623023
H	-1.1074875	2.5926701	0.9357643
H	-2.4384027	3.7536143	0.4166565
C	-3.0552092	1.7397619	0.6050896
C	-4.4838671	2.0019306	0.1826684
H	-5.2001256	1.6803195	0.9492994
H	-4.6327015	3.0690954	0.0064319
H	-4.7347042	1.4696683	-0.7435572
C	-2.7980419	-1.9573967	1.0653624
C	-3.6882725	-0.7258168	0.8012188
C	-1.4353972	0.0206209	1.3950633
C	-1.6633520	-1.4096950	1.9566661
H	-3.3497266	-2.7729187	1.5422048
H	-2.3853368	-2.3278407	0.1215916
H	-4.5024353	-0.6573690	1.5384424
H	-4.1411753	-0.7655783	-0.1954034
H	-1.0642708	0.7049226	2.1646941
H	-0.7584945	-2.0237000	1.9312858
H	-1.9881182	-1.3284272	3.0001336
C	3.9994983	-0.4285565	-2.5876080
H	4.0921271	-1.5103642	-2.3738440
O	3.7535918	0.3651571	-1.6724244
C	4.1915960	-0.0353184	-4.0255024
H	3.4581921	-0.5514968	-4.6593206
H	4.0835251	1.0448786	-4.1441272
H	5.1855938	-0.3471738	-4.3726737
