31
-0.00327047 (energy)
C	3.3684396	-0.6797220	1.9799292
O	4.0354989	-0.5252540	0.9557712
O	3.7929424	-0.2251020	3.2139164
H	4.6633915	0.2232466	3.1326871
N	1.1967510	-1.2269054	0.9296491
C	0.6105569	1.0384575	1.5522881
H	1.2454322	1.0571690	2.4295437
H	0.0424671	1.9370097	1.3491018
C	0.5137924	-0.0261543	0.7202948
C	-0.3643102	0.0179160	-0.5106517
H	-1.1074374	-0.7895137	-0.5091671
H	-0.8979396	0.9693340	-0.5564262
H	0.2255185	-0.0817284	-1.4305915
C	2.2668399	-3.3213401	0.5956237
C	1.1928588	-2.3823242	0.0092066
C	2.0439026	-1.4297858	2.0957499
C	2.2920022	-2.9632819	2.0966506
H	2.0359065	-4.3760948	0.4196321
H	3.2395413	-3.1027741	0.1435855
H	0.2061245	-2.8691487	-0.0108485
H	1.4394100	-2.0824608	-1.0151235
H	1.5454707	-1.0983172	3.0122810
H	3.2269252	-3.2406224	2.5920440
H	1.4684741	-3.4508239	2.6305106
C	3.5059109	4.6563081	0.6406906
H	3.4208996	4.6669627	1.7439777
O	3.6631253	5.7142677	0.0209993
C	3.4164653	3.3001691	-0.0011541
H	2.4589787	2.8253219	0.2514059
H	3.5098897	3.3837544	-1.0859869
H	4.2073345	2.6453137	0.3880806
