31
-0.00339357 (energy)
C	-0.4721266	-0.0244187	-0.1285354
O	0.1526345	0.6932520	-0.9110637
O	0.1329526	-0.6481992	0.9458870
H	1.0890568	-0.4242706	0.9777777
N	-2.7651584	0.6934826	-0.7162017
C	-2.6457548	1.9178414	1.3694302
H	-1.9835967	1.2091158	1.8513522
H	-2.9448132	2.7754054	1.9581192
C	-3.0883941	1.7831883	0.0962791
C	-3.9852943	2.8241773	-0.5362929
H	-4.9263376	2.3871849	-0.8935854
H	-4.2274694	3.6018640	0.1907604
H	-3.5009692	3.3055553	-1.3952579
C	-2.3566010	-0.6953719	-2.5996783
C	-3.1497667	0.5430131	-2.1345309
C	-1.9467615	-0.4065749	-0.2276148
C	-2.1461561	-1.5081144	-1.3046559
H	-2.8879501	-1.2627087	-3.3694886
H	-1.3889506	-0.3862062	-3.0075105
H	-4.2337994	0.3828761	-2.2358915
H	-2.8859863	1.4304788	-2.7200071
H	-2.2777780	-0.7403278	0.7610065
H	-1.3026781	-2.2021697	-1.3616235
H	-3.0430861	-2.0853272	-1.0531723
C	3.8933424	1.2084235	3.0097174
H	4.7154608	1.8969918	3.2828071
O	4.0690708	0.3474583	2.1403092
C	2.6062094	1.4095361	3.7593309
H	2.2342033	2.4310054	3.6035784
H	1.8542507	0.6904456	3.4276024
H	2.7757512	1.2951158	4.8382085
