31
-0.0026384 (energy)
C	3.8334788	-0.8039300	0.6218226
O	4.1580183	0.3324401	0.2738784
O	4.4557423	-1.4635151	1.6645795
H	5.1538469	-0.8966178	2.0602735
N	1.6378792	-0.9263241	-0.5109136
C	0.7521383	-0.5884626	1.7171988
H	1.5744556	-1.0857936	2.2166488
H	-0.0324702	-0.1981156	2.3523566
C	0.6772760	-0.4300439	0.3739663
C	-0.4800705	0.3045702	-0.2656641
H	-1.0004823	-0.3198416	-1.0028646
H	-1.2026769	0.6017780	0.4969363
H	-0.1449330	1.2120580	-0.7836072
C	3.0163721	-1.2590752	-2.4167871
C	1.6470780	-0.7059854	-1.9715944
C	2.7840653	-1.6914977	-0.0425290
C	3.3545721	-2.3168764	-1.3450604
H	2.9851393	-1.6795641	-3.4262545
H	3.7639263	-0.4595964	-2.4008503
H	0.8216231	-1.2467128	-2.4587115
H	1.5444593	0.3560358	-2.2196630
H	2.4829539	-2.4583419	0.6783157
H	4.4238790	-2.5365390	-1.2761804
H	2.8277659	-3.2574667	-1.5416999
C	5.2424992	-2.5412842	4.9918595
H	5.6091052	-3.1638792	4.1536719
O	4.6998169	-1.4540460	4.7650973
C	5.4565277	-3.1148795	6.3645424
H	6.5268355	-3.2888534	6.5383849
H	5.0661327	-2.4375467	7.1270310
H	4.9593016	-4.0903983	6.4478643
