31
-0.00278928 (energy)
C	-2.4710733	0.1118640	-0.0034804
O	-2.7068928	-0.9921167	0.4898186
O	-3.4239976	1.1104339	-0.0698119
H	-4.2681222	0.8052095	0.3296728
N	0.0000000	0.0000000	0.0000000
C	-0.1858644	1.4998843	1.8918176
H	-1.0991531	1.9678222	1.5455057
H	0.2158600	1.8620149	2.8293066
C	0.4443547	0.5030638	1.2253737
C	1.6997621	-0.1367337	1.7756891
H	2.5351137	-0.0682929	1.0673907
H	1.9986883	0.3597296	2.7010102
H	1.5460100	-1.2000810	1.9987790
C	-0.3960420	-1.4134136	-1.8678149
C	0.5998680	-1.1406387	-0.7220276
C	-1.1694551	0.5482003	-0.6711695
C	-1.0732200	-0.0466468	-2.1029727
H	0.0992070	-1.7962550	-2.7650170
H	-1.1408919	-2.1484784	-1.5466667
H	1.5956254	-0.8822514	-1.1128574
H	0.7116483	-2.0152824	-0.0720574
H	-1.1448059	1.6425399	-0.6833582
H	-2.0468751	-0.1251243	-2.5951622
H	-0.4379763	0.6067985	-2.7115584
C	4.9830125	0.6698499	-2.5348282
H	5.3602278	1.4946384	-1.9007813
O	4.0661407	-0.0535957	-2.1298780
C	5.6580808	0.5201374	-3.8693495
H	6.7345152	0.3520415	-3.7312210
H	5.2247279	-0.3137734	-4.4255642
H	5.5539803	1.4456413	-4.4510873
