31
-0.00274125 (energy)
C	0.4153456	-0.2532135	-0.0582415
O	-0.5345394	-1.0163038	0.1238017
O	0.2653944	1.1202635	-0.0843585
H	-0.6739241	1.3650540	0.0674791
N	2.2582927	-1.8393031	0.3962852
C	2.4233604	-0.6532015	2.5008250
H	2.0832107	0.2925668	2.0973220
H	2.6700891	-0.6669387	3.5545531
C	2.5353393	-1.7847646	1.7646184
C	2.9835567	-3.0866597	2.3910415
H	3.8703079	-3.4949811	1.8899136
H	3.2306453	-2.9308160	3.4430451
H	2.1975599	-3.8506452	2.3395488
C	1.6862330	-2.6057325	-1.7782616
C	2.2811805	-3.0631386	-0.4307125
C	1.8591057	-0.6547146	-0.3493803
C	2.0064572	-1.0969018	-1.8312449
H	2.1085725	-3.1543456	-2.6252939
H	0.6021171	-2.7572228	-1.7772551
H	3.3084869	-3.4374810	-0.5554288
H	1.6848058	-3.8645442	0.0187803
H	2.5025552	0.1991189	-0.1142712
H	1.3515069	-0.5390103	-2.5066785
H	3.0420831	-0.9260891	-2.1462115
C	2.7982400	3.6690263	-1.4095430
H	2.7056112	4.0248053	-0.3657882
O	3.0441466	2.4795973	-1.6393272
C	2.6061422	4.7176601	-2.4690446
H	3.3395460	5.5246521	-2.3389303
H	2.7142131	4.2802936	-3.4638350
H	1.6121443	5.1742469	-2.3725557
