31
-0.00285193 (energy)
C	-1.7516224	-1.5712252	0.8408304
O	-1.4397275	-1.5572318	2.0325745
O	-2.4976504	-2.5925705	0.2841416
H	-2.7282617	-3.2597873	0.9674691
N	-1.2984567	0.8019749	0.3104615
C	-3.7098182	1.0141641	0.3694853
H	-3.8968982	0.0014452	0.0342306
H	-4.5809782	1.6264449	0.5633904
C	-2.4689355	1.5223708	0.5616070
C	-2.2693465	2.9348699	1.0648426
H	-1.6564012	3.5293227	0.3755626
H	-3.2345101	3.4331209	1.1755534
H	-1.7697317	2.9481434	2.0417383
C	0.9486940	0.0323157	0.3459387
C	0.0724195	1.2789072	0.5851545
C	-1.3352507	-0.5536614	-0.2182289
C	0.1324144	-0.8065071	-0.6600357
H	1.9423657	0.2905404	-0.0318803
H	1.0706485	-0.5222745	1.2817883
H	0.3504750	2.0977898	-0.0954049
H	0.1727243	1.6477462	1.6117286
H	-2.0321426	-0.6343255	-1.0585682
H	0.3990839	-1.8673003	-0.6557403
H	0.2605879	-0.4293891	-1.6809449
C	4.7047969	3.2044617	-0.0911481
H	5.7398075	2.8177962	-0.0292952
O	3.7514658	2.4189149	-0.1368433
C	4.5746572	4.7016770	-0.1132438
H	5.1235128	5.1157817	-0.9695859
H	3.5240463	4.9932159	-0.1748755
H	5.0250750	5.1332066	0.7904815
