31
-0.00437535 (energy)
C	-0.4719621	-0.1231501	-0.0459013
O	-0.2476805	0.9485320	-0.6106341
O	0.5152637	-0.8336355	0.6099968
H	1.3728333	-0.3571640	0.5566526
N	-2.9385053	0.0256457	0.0670305
C	-2.5490323	0.5405458	2.4007744
H	-1.6447316	-0.0510614	2.4731301
H	-2.8643494	1.0512316	3.3014308
C	-3.2689431	0.6719310	1.2608442
C	-4.5063467	1.5405771	1.2106278
H	-5.3881786	0.9737801	0.8861335
H	-4.7143985	1.9539454	2.1995125
H	-4.3821103	2.3796373	0.5144528
C	-2.7427282	-0.5429796	-2.2311550
C	-3.6384447	0.2037335	-1.2216091
C	-1.7996091	-0.8762910	-0.0226517
C	-2.0269970	-1.6082010	-1.3738612
H	-3.3189985	-0.9819487	-3.0509291
H	-2.0082563	0.1469481	-2.6587161
H	-4.6484534	-0.2318466	-1.1870089
H	-3.7390746	1.2628366	-1.4826295
H	-1.7782671	-1.5753330	0.8195003
H	-1.0967271	-1.9700579	-1.8211540
H	-2.6770480	-2.4728457	-1.1985751
C	4.0969067	-1.2441520	2.2915725
H	4.1305139	-2.1984348	1.7322892
O	3.9274114	-0.1782754	1.6889195
C	4.2684727	-1.3613048	3.7801686
H	5.2310370	-1.8359166	4.0131076
H	4.2219545	-0.3761351	4.2490539
H	3.4865595	-2.0075306	4.2006651
