31
-0.00263726 (energy)
C	-1.6039915	-1.1014320	-1.5677961
O	-2.4801247	-1.3844655	-0.7492543
O	-1.4948986	-1.7450110	-2.7857908
H	-2.2019832	-2.4205390	-2.8806046
N	-0.9180959	1.0851183	-0.6365203
C	-2.1748925	1.9886580	-2.4985757
H	-1.9780934	1.1497583	-3.1547095
H	-2.7783993	2.7888900	-2.9070058
C	-1.7208337	2.0658142	-1.2246636
C	-2.0568542	3.2479529	-0.3426920
H	-1.1534476	3.7428763	0.0355808
H	-2.6353143	3.9831027	-0.9057110
H	-2.6530633	2.9453819	0.5274240
C	0.1747552	-0.3097936	0.9456356
C	-0.4705491	1.0802617	0.7712795
C	-0.4786334	-0.0874534	-1.3785214
C	0.6378149	-0.6842168	-0.4781985
H	0.9987918	-0.2968546	1.6650847
H	-0.5747371	-1.0271004	1.2949062
H	0.2578604	1.8837828	0.9578766
H	-1.3094360	1.2215924	1.4613897
H	-0.0993241	0.1868718	-2.3680694
H	0.7674299	-1.7607580	-0.6219779
H	1.5860350	-0.1932208	-0.7245795
C	4.0482172	0.6333242	-2.9235711
H	4.0742160	-0.4589828	-3.0989916
O	3.8401334	1.0737536	-1.7874658
C	4.2785721	1.4884043	-4.1380062
H	3.5226059	1.2683788	-4.9036110
H	4.2360532	2.5471460	-3.8737434
H	5.2559454	1.2578077	-4.5822809
