31
-0.00289774 (energy)
C	-1.9335675	-1.3264213	-0.8636252
O	-2.0480826	-2.1041113	0.0849593
O	-2.4442057	-1.6085529	-2.1163250
H	-2.8946212	-2.4817170	-2.1137339
N	-1.3263343	0.7122834	0.3987851
C	-3.6124602	1.3693069	-0.0541173
H	-3.6735940	0.8371497	-0.9954278
H	-4.4974023	1.9127394	0.2507849
C	-2.5121214	1.3697665	0.7359643
C	-2.4966859	2.1039588	2.0584464
H	-1.6849581	2.8409231	2.1049710
H	-3.4415084	2.6309570	2.2055353
H	-2.3613195	1.4142211	2.9010936
C	0.7731627	-0.3927665	0.5183552
C	-0.1320826	0.6103318	1.2622612
C	-1.1800865	0.0012360	-0.8628172
C	0.3501743	-0.2482544	-0.9588441
H	1.8361304	-0.1851987	0.6727118
H	0.5676831	-1.4096930	0.8674916
H	0.3619691	1.5875762	1.3715820
H	-0.3889360	0.2507531	2.2646020
H	-1.5475378	0.6002369	-1.7021697
H	0.5992927	-1.1220900	-1.5677488
H	0.8197895	0.6291087	-1.4177532
C	4.6949692	2.5899801	0.6427639
H	5.3784685	2.3572183	-0.1958262
O	3.7735297	1.8156349	0.9244568
C	4.9793602	3.8737722	1.3708282
H	4.9325022	4.7213454	0.6740707
H	4.2598497	4.0225361	2.1787581
H	5.9975571	3.8572585	1.7817001
