31
-0.00538776 (energy)
C	-0.4719621	-0.1314224	-0.0010132
O	-0.2476805	0.6824794	-0.8982254
O	0.5152637	-0.5747299	0.8583296
H	1.3728333	-0.1452380	0.6452396
N	-2.9385053	0.0470248	0.0542167
C	-2.5490323	1.3290601	2.0711125
H	-1.6447316	0.7978783	2.3414461
H	-2.8643494	2.1169904	2.7427878
C	-3.2689431	1.0626427	0.9549920
C	-4.5063467	1.8617281	0.6107096
H	-5.3881786	1.2181295	0.4996407
H	-4.7143985	2.5883856	1.3985770
H	-4.3821103	2.4120809	-0.3304564
C	-2.7427282	-1.2733338	-1.9108900
C	-3.6384447	-0.2263681	-1.2176180
C	-1.7996091	-0.8311915	0.2784236
C	-2.0269970	-1.9811028	-0.7409701
H	-3.3189985	-1.9662091	-2.5310893
H	-2.0082563	-0.7712484	-2.5486351
H	-4.6484534	-0.6238455	-1.0361273
H	-3.7390746	0.6795891	-1.8251316
H	-1.7782671	-1.2000432	1.3088740
H	-1.0967271	-2.4741202	-1.0375255
H	-2.6770480	-2.7336517	-0.2805292
C	3.4581887	0.3824895	-2.2690803
H	3.4217687	-0.7086189	-2.4500188
O	3.3075978	0.8263636	-1.1252664
C	3.6963919	1.2316482	-3.4861534
H	2.9073256	1.0559100	-4.2294820
H	3.7172325	2.2895674	-3.2160620
H	4.6466017	0.9530805	-3.9608267
