31
-0.00241464 (energy)
C	-1.3209415	-0.7647894	-1.9465199
O	-0.3972610	-0.9230611	-2.7462026
O	-2.5750534	-1.3086789	-2.1489896
H	-2.5952154	-1.8197596	-2.9878497
N	0.0000000	0.0000000	0.0000000
C	-0.3986643	-2.2389530	0.8314616
H	-1.3562195	-2.3485860	0.3374345
H	-0.0634555	-3.0795639	1.4251072
C	0.3754819	-1.1322242	0.7274247
C	1.7213271	-1.0494219	1.4130483
H	1.7809701	-0.1870382	2.0890070
H	1.8991185	-1.9527599	1.9999234
H	2.5385624	-0.9534593	0.6870772
C	0.0532517	2.0171860	-1.2535728
C	0.8427659	1.1939986	-0.2152563
C	-1.2865026	0.0808121	-0.6760160
C	-1.4122387	1.5883317	-1.0292013
H	0.1995072	3.0939123	-1.1267638
H	0.3711867	1.7442584	-2.2648520
H	0.9776197	1.7572790	0.7204650
H	1.8360842	0.9240020	-0.5899271
H	-2.1002106	-0.2530263	-0.0242749
H	-2.0533324	1.7678140	-1.8970714
H	-1.8482263	2.1135483	-0.1719007
C	1.3951027	5.6454880	0.7946383
H	2.2172211	6.2262747	0.3348655
O	1.5708311	4.4620758	1.1055519
C	0.1079697	6.3952286	0.9952764
H	-0.2640364	6.7710776	0.0327818
H	-0.6439889	5.7483981	1.4521628
H	0.2775115	7.2723538	1.6338061
