31
-0.00182305 (energy)
C	1.5210461	1.6002781	-2.4559920
O	0.6869079	1.7547853	-3.3493391
O	2.0659413	2.6636434	-1.7617660
H	1.6866836	3.5116871	-2.0815813
N	1.1790132	-0.8143534	-2.0421109
C	0.0126786	-0.0526911	-0.0615286
H	0.6146499	0.8395348	0.0591262
H	-0.7656118	-0.2121503	0.6734840
C	0.1824317	-0.9399300	-1.0709669
C	-0.7122047	-2.1519442	-1.2083817
H	-0.1348740	-3.0851399	-1.2126428
H	-1.4172606	-2.1936093	-0.3757881
H	-1.2922442	-2.1215968	-2.1393755
C	2.4252446	-0.9936611	-4.0565776
C	1.3504793	-1.7042868	-3.2086614
C	2.1407994	0.2777420	-2.0119059
C	3.2285759	-0.1739312	-3.0247722
H	3.0507787	-1.7003665	-4.6098273
H	1.9473475	-0.3216140	-4.7764558
H	1.6861977	-2.7049585	-2.8972225
H	0.4149044	-1.8231293	-3.7659170
H	2.5535187	0.4169139	-1.0076006
H	3.7702713	0.6669660	-3.4673459
H	3.9543369	-0.8058079	-2.5004585
C	3.6850528	-4.0904765	0.8136283
H	3.1139814	-4.4771420	1.6790474
O	4.2012914	-4.8760235	0.0108670
C	3.7692580	-2.5932613	0.7119716
H	4.2364443	-2.1791564	1.6154654
H	4.3479379	-2.3017225	-0.1670684
H	2.7614000	-2.1617318	0.6501823
