31
-0.00186516 (energy)
C	-0.4153456	-0.0761681	0.2484101
O	0.5345395	-0.6153672	0.8182441
O	-0.2653945	0.6331882	-0.9279974
H	0.6739240	0.6240883	-1.2159111
N	-2.2582926	-1.2628445	1.3947409
C	-2.4233603	-2.4923788	-0.6847231
H	-2.0832107	-1.6700509	-1.3020311
H	-2.6700890	-3.4118028	-1.1996903
C	-2.5353392	-2.4205867	0.6633427
C	-2.9835565	-3.6140325	1.4776054
H	-3.8703077	-3.3842037	2.0817861
H	-3.2306451	-4.4471726	0.8166390
H	-2.1975596	-3.9514312	2.1649826
C	-1.6862329	0.2371537	3.1457614
C	-2.2811803	-1.1585611	2.8681123
C	-1.8591057	-0.0247851	0.7416897
C	-2.0064571	1.0374538	1.8655673
H	-2.1085723	0.6963987	4.0443904
H	-0.6021170	0.1605369	3.2764526
H	-3.3084867	-1.2377249	3.2546605
H	-1.6848056	-1.9485361	3.3374036
H	-2.5025552	0.1985211	-0.1153063
H	-1.3515069	1.9013422	1.7201358
H	-3.0420831	1.3956292	1.8751224
C	5.3681582	-0.3803043	-0.1765125
H	5.5692216	-1.1728000	-0.9222383
O	6.3073152	0.2050273	0.3742899
C	3.9162876	-0.0971657	0.0899125
H	3.4131661	-1.0065867	0.4446929
H	3.8116146	0.6945872	0.8347264
H	3.4130998	0.2013427	-0.8393389
