31
-0.00252081 (energy)
C	1.3390273	0.5439733	3.6931864
O	0.3527806	1.2235841	3.9815863
O	1.9084566	-0.3468706	4.5829920
H	1.4122102	-0.3481718	5.4309508
N	1.2701781	0.8138826	1.2353138
C	0.4076675	-1.4485176	1.2634778
H	0.9473851	-1.7388304	2.1564601
H	-0.2157733	-2.2075015	0.8088662
C	0.4707322	-0.2094205	0.7197537
C	-0.3333184	0.1489233	-0.5104202
H	0.3079652	0.5098406	-1.3244700
H	-0.8774559	-0.7264457	-0.8705526
H	-1.0666726	0.9369353	-0.2974764
C	2.1581919	2.9485044	1.7813367
C	1.3078719	2.2024962	0.7327667
C	2.1312136	0.6017133	2.3895318
C	3.0595483	1.8472003	2.3785023
H	2.7332070	3.7685439	1.3412190
H	1.5099065	3.3629311	2.5599471
H	1.7722576	2.2503654	-0.2637770
H	0.3024773	2.6303529	0.6548060
H	2.6993755	-0.3293380	2.2964158
H	3.4464913	2.0956449	3.3709557
H	3.9139247	1.6412089	1.7238952
C	4.0069332	3.6834072	-3.0936954
H	4.6129189	3.3579449	-3.9605510
O	3.6537774	2.8613081	-2.2407908
C	3.6706134	5.1477758	-3.0538012
H	3.1160610	5.4325805	-3.9579056
H	3.0737572	5.3789684	-2.1689908
H	4.5910938	5.7464828	-3.0449026
