31
-0.00230472 (energy)
C	1.9563419	0.9318911	1.1929101
O	1.3638934	1.7171401	1.9346088
O	3.2635170	0.5449919	1.4192029
H	3.6118527	0.9741600	2.2314673
N	0.0000000	0.0000000	0.0000000
C	0.3693031	-1.9265853	1.4195269
H	1.4407125	-1.7835263	1.4874243
H	-0.0381514	-2.7768288	1.9510093
C	-0.4541822	-1.1020455	0.7288890
C	-1.9489043	-1.3324596	0.6980560
H	-2.3230791	-1.4374961	-0.3281718
H	-2.1989212	-2.2438892	1.2447181
H	-2.4947571	-0.5012753	1.1620537
C	0.1168844	2.0870066	-1.1287432
C	-0.8624301	0.9766850	-0.6960768
C	1.4167312	0.3194663	-0.0971149
C	1.4720497	1.3585726	-1.2505283
H	-0.1872596	2.5665985	-2.0637827
H	0.1750686	2.8557767	-0.3516559
H	-1.3557777	0.5191675	-1.5668987
H	-1.6438435	1.3673107	-0.0351968
H	2.0109526	-0.5714531	-0.3240479
H	2.3324133	2.0297349	-1.1748380
H	1.5447742	0.8210789	-2.2027435
C	3.7015665	4.0594640	-4.1308459
H	4.7186209	4.3325550	-3.7908391
O	3.1278525	3.0787349	-3.6439838
C	3.1130118	4.9503220	-5.1886991
H	3.7574588	4.9572148	-6.0779051
H	2.1126794	4.6087307	-5.4629748
H	3.0629577	5.9854416	-4.8256078
