31
-0.0020629 (energy)
C	1.9335675	1.3264212	-0.8636254
O	2.0480827	2.1041113	0.0849591
O	2.4442057	1.6085527	-2.1163252
H	2.8946212	2.4817167	-2.1137341
N	1.3263343	-0.7122834	0.3987851
C	3.6124601	-1.3693071	-0.0541174
H	3.6735940	-0.8371499	-0.9954280
H	4.4974022	-1.9127396	0.2507848
C	2.5121214	-1.3697665	0.7359643
C	2.4966859	-2.1039587	2.0584464
H	1.6849580	-2.8409230	2.1049711
H	3.4415084	-2.6309570	2.2055353
H	2.3613196	-1.4142210	2.9010936
C	-0.7731627	0.3927665	0.5183552
C	0.1320826	-0.6103317	1.2622612
C	1.1800864	-0.0012361	-0.8628172
C	-0.3501744	0.2482544	-0.9588441
H	-1.8361304	0.1851988	0.6727119
H	-0.5676830	1.4096931	0.8674915
H	-0.3619691	-1.5875762	1.3715821
H	0.3889360	-0.2507530	2.2646020
H	1.5475377	-0.6002371	-1.7021697
H	-0.5992927	1.1220899	-1.5677488
H	-0.8197896	-0.6291088	-1.4177532
C	3.0996175	6.8693505	0.7473391
H	3.1332246	7.2544274	-0.2895645
O	2.9301224	7.6479354	1.6923730
C	3.2711834	5.3830261	0.8904583
H	4.2337476	5.0712104	0.4635064
H	3.2246652	5.0923373	1.9420822
H	2.4892701	4.8567020	0.3270687
