31
-0.00479812 (energy)
C	-0.4719621	0.1013267	-0.0837005
O	-0.2476805	0.0545585	1.1267699
O	0.5152637	-0.1114549	-1.0269479
H	1.3728333	-0.3034932	-0.5876394
N	-2.9385053	-0.0708729	-0.0113054
C	-2.5490323	-2.3494045	-0.7322610
H	-1.6447316	-2.1162627	-1.2807857
H	-2.8643494	-3.3847387	-0.7403224
C	-3.2689431	-1.4278886	-0.0485129
C	-4.5063467	-1.8187231	0.7288649
H	-5.3881786	-1.2543042	0.4002515
H	-4.7143985	-2.8818064	0.5924099
H	-4.3821103	-1.6353480	1.8035999
C	-2.7427282	2.2037267	0.6453436
C	-3.6384447	0.9560777	0.7872429
C	-1.7996091	0.4577625	-0.7475644
C	-2.0269970	1.9938992	-0.7058122
H	-3.3189985	3.1331564	0.6750722
H	-2.0082563	2.2290415	1.4566190
H	-4.6484534	1.1439031	0.3927195
H	-3.7390746	0.6525764	1.8349634
H	-1.7782671	0.0779585	-1.7740286
H	-1.0967271	2.5621946	-0.7955430
H	-2.6770480	2.2744195	-1.5422595
C	3.2147416	2.3289300	0.8052014
H	2.9741007	1.9422645	1.8137472
O	3.4252868	1.5433831	-0.1257115
C	3.2591000	3.8261453	0.6808757
H	4.0071245	4.2402501	1.3700951
H	3.5022320	4.1176842	-0.3430719
H	2.2908900	4.2576747	0.9675204
