31
-0.000827113 (energy)
C	1.6039915	1.3527161	1.3569436
O	2.4801247	0.4974615	1.4935389
O	1.4948987	2.4404505	2.2022477
H	2.2019833	2.4165196	2.8839771
N	0.9180960	0.8152788	-0.9581023
C	2.1748927	2.8059433	-1.5245729
H	1.9780935	3.3064356	-0.5844816
H	2.7783995	3.3471271	-2.2417245
C	1.7208338	1.5647829	-1.8217694
C	2.0568542	0.9014865	-3.1391014
H	1.1534476	0.6149031	-3.6921922
H	2.6353144	1.5836093	-3.7653154
H	2.6530634	-0.0079514	-2.9922211
C	-0.1747552	-0.9850644	0.1408793
C	0.4705491	-0.5719767	-1.1977814
C	0.4786334	1.3423924	0.3255024
C	-0.6378149	0.3521206	0.7568603
H	-0.9987919	-1.6913365	0.0032059
H	0.5747370	-1.4535878	0.7866384
H	-0.2578604	-0.6162090	-2.0214974
H	1.3094360	-1.2270608	-1.4568012
H	0.0993242	2.3645431	0.2271779
H	-0.7674299	0.3067764	1.8420134
H	-1.5860350	0.6800192	0.3161072
C	4.0438627	-4.7599888	0.4282803
H	4.1396901	-5.1330687	-0.6091258
O	4.1619447	-5.5392988	1.3805117
C	3.7699880	-3.2882742	0.5629165
H	2.8392895	-3.0281400	0.0412102
H	3.6911165	-3.0088410	1.6156620
H	4.5726060	-2.7097269	0.0865754
