31
-0.000761698 (energy)
C	1.9563419	1.2836905	0.8022433
O	1.3638934	2.2752591	1.2306411
O	3.2635170	0.9975209	1.1472163
H	3.6118527	1.6786177	1.7637110
N	0.0000000	0.0000000	0.0000000
C	0.3693031	-1.3248912	1.9928499
H	1.4407125	-1.1672374	2.0077235
H	-0.0381514	-1.9420810	2.7830804
C	-0.4541822	-0.7862893	1.0618534
C	-1.9489043	-1.0133532	1.1116861
H	-2.3230791	-1.4630458	0.1832719
H	-2.1989212	-1.6828475	1.9371077
H	-2.4947571	-0.0735990	1.2634195
C	0.1168844	1.5750918	-1.7744700
C	-0.8624301	0.6797114	-0.9881442
C	1.4167312	0.2669849	-0.2005220
C	1.4720497	0.8489348	-1.6397715
H	-0.1872596	1.7059584	-2.8171498
H	0.1750686	2.5632789	-1.3071816
H	-1.3557777	-0.0480531	-1.6499689
H	-1.6438435	1.2728137	-0.5007220
H	2.0109526	-0.6478212	-0.1090570
H	2.3324133	1.5055087	-1.7981969
H	1.5447742	0.0181792	-2.3507273
C	2.7534655	-5.4553250	0.4789901
H	2.6663665	-5.8400777	-0.5549161
O	2.6731031	-6.2313208	1.4378355
C	2.9681618	-3.9727026	0.6007046
H	2.1394502	-3.4309256	0.1255608
H	3.0425277	-3.6821285	1.6507585
H	3.8839454	-3.6790326	0.0706935
