31
-0.00483729 (energy)
C	-0.4719621	-0.1238432	0.0439970
O	-0.2476806	0.3341097	-1.0774774
O	0.5152638	-0.2465034	1.0031351
H	1.3728334	0.0842059	0.6560011
N	-2.9385053	0.0627320	0.0348639
C	-2.5490322	1.9572700	1.4916440
H	-1.6447315	1.5505820	1.9273494
H	-2.8643493	2.9274088	1.8533244
C	-3.2689431	1.3251839	0.5339541
C	-4.5063468	1.9583270	-0.0628687
H	-5.3881787	1.3155543	0.0528844
H	-4.7143986	2.9106282	0.4289530
H	-4.3821105	2.1535917	-1.1355072
C	-2.7427283	-1.8501054	-1.3601431
C	-3.6384447	-0.6291664	-1.0667638
C	-1.7996090	-0.6858381	0.5459170
C	-2.0269969	-2.1150545	-0.0187069
H	-3.3189986	-2.7133159	-1.7059625
H	-2.0082565	-1.5964210	-2.1311509
H	-4.6484535	-0.9405996	-0.7602730
H	-3.7390748	0.0143730	-1.9474955
H	-1.7782670	-0.6800105	1.6403784
H	-1.0967270	-2.6797672	-0.1287560
H	-2.6770479	-2.6647391	0.6713530
C	4.9392186	-1.0526799	-0.4076748
H	5.4835389	-0.1280152	-0.1369469
O	3.7039848	-1.0786692	-0.3685064
C	5.8019172	-2.2166092	-0.8077968
H	6.4885463	-2.4760661	0.0090689
H	5.1845001	-3.0821446	-1.0572389
H	6.4243391	-1.9460893	-1.6710600
