31
-0.00450831 (energy)
C	0.4148720	-0.0766954	0.2490384
O	0.6181215	0.6679373	-0.7111386
O	-0.8354264	-0.5924005	0.5326023
H	-1.4910259	-0.2856245	-0.1317576
N	2.7574250	-0.7071402	0.7324781
C	2.1448588	-2.8024460	-0.3151994
H	1.1074876	-2.7563632	-0.0074145
H	2.4384028	-3.6697486	-0.8922825
C	3.0552093	-1.8417941	-0.0264354
C	4.4838672	-1.9436755	-0.5130485
H	5.2001257	-1.9036631	0.3173464
H	4.6327016	-2.8862060	-1.0436485
H	4.7347042	-1.1267248	-1.2013715
C	2.7980420	1.4749760	1.6705821
C	3.6882725	0.4080119	1.0011432
C	1.4353972	-0.4965170	1.3038779
C	1.6633521	0.6554610	2.3208086
H	3.3497267	2.0782264	2.3975923
H	2.3853367	2.1458681	0.9104269
H	4.5024353	0.0915467	1.6704963
H	4.1411753	0.7862403	0.0782239
H	1.0642709	-1.4027795	1.7930494
H	0.7584946	1.2411175	2.5069611
H	1.9881184	0.2222074	3.2735522
C	-5.0769333	-0.3971072	1.1029954
H	-4.8668404	0.4419892	1.7931846
O	-4.2100432	-0.7777401	0.3082425
C	-6.4488026	-1.0002904	1.2179852
H	-7.2144682	-0.2346747	1.0345853
H	-6.5682424	-1.8174445	0.5034432
H	-6.6125522	-1.3743899	2.2373227
