31
-0.00395883 (energy)
C	-0.4719621	-0.0665887	0.1133086
O	-0.2476806	-0.4366463	-1.0401572
O	0.5152638	0.4559702	0.9268954
H	1.3728334	0.4861748	0.4483995
N	-2.9385053	0.0704655	-0.0136161
C	-2.5490322	2.4581661	-0.1154433
H	-1.6447315	2.4266910	0.4797404
H	-2.8643493	3.4338192	-0.4619732
C	-3.2689431	1.3583688	-0.4427792
C	-4.5063468	1.4597543	-1.3069485
H	-5.3881787	1.0417665	-0.8051102
H	-4.7143986	2.5053962	-1.5423187
H	-4.3821105	0.9198570	-2.2541511
C	-2.7427283	-2.2915461	0.1472947
C	-3.6384447	-1.1676720	-0.4127681
C	-1.7996090	-0.1744738	0.8590449
C	-2.0269969	-1.6322503	1.3452005
H	-3.3189986	-3.1750921	0.4372427
H	-2.0082565	-2.5928068	-0.6063967
H	-4.6484535	-1.2092351	0.0222028
H	-3.7390748	-1.2408156	-1.5011069
H	-1.7782670	0.5334966	1.6937051
H	-1.0967270	-2.1355835	1.6238883
H	-2.6770479	-1.6097712	2.2271475
C	4.1044322	1.9560210	1.6807352
H	4.0680122	2.6582725	0.8262767
O	3.9538413	0.7435120	1.4932345
C	4.3426355	2.5854579	3.0246646
H	3.5535692	3.3170684	3.2441352
H	4.3634761	1.8225923	3.8058038
H	5.2928453	3.1358209	3.0207546
