31
-0.00454012 (energy)
C	0.4719621	-0.1231501	0.0459013
O	0.2476805	0.9485321	0.6106340
O	-0.5152637	-0.8336355	-0.6099967
H	-1.3728333	-0.3571640	-0.5566525
N	2.9385053	0.0256455	-0.0670305
C	2.5490323	0.5405454	-2.4007745
H	1.6447315	-0.0510618	-2.4731301
H	2.8643494	1.0512311	-3.3014310
C	3.2689431	0.6719307	-1.2608443
C	4.5063467	1.5405768	-1.2106281
H	5.3881787	0.9737798	-0.8861338
H	4.7143986	1.9539449	-2.1995128
H	4.3821104	2.3796371	-0.5144532
C	2.7427283	-0.5429794	2.2311550
C	3.6384447	0.2037334	1.2216089
C	1.7996090	-0.8762911	0.0226517
C	2.0269970	-1.6082010	1.3738613
H	3.3189985	-0.9819485	3.0509291
H	2.0082564	0.1469483	2.6587160
H	4.6484535	-0.2318467	1.1870088
H	3.7390747	1.2628366	1.4826293
H	1.7782671	-1.5753332	-0.8195002
H	1.0967270	-1.9700578	1.8211542
H	2.6770480	-2.4728457	1.1985753
C	-3.6481150	1.7952481	-3.0633569
H	-3.0875960	2.3248855	-3.8570102
O	-3.0400466	1.2180466	-2.1550049
C	-5.1451827	1.8420260	-3.1885695
H	-5.4576885	1.4066248	-4.1471167
H	-5.6147292	1.2966393	-2.3671950
H	-5.4919419	2.8839298	-3.1857491
