31
-0.0038774 (energy)
C	-0.4721266	0.0669077	0.1124321
O	0.1526345	-0.3398417	1.0932259
O	0.1329526	0.2855957	-1.1105402
H	1.0890568	0.0642643	-1.0639196
N	-2.7651584	-0.4067051	0.9101945
C	-2.6457548	-2.2705540	-0.6309032
H	-1.9835967	-1.7693969	-1.3261601
H	-2.9448132	-3.2777441	-0.8907858
C	-3.0883941	-1.7085783	0.5194135
C	-3.9852943	-2.4704357	1.4698759
H	-4.9263376	-1.9375959	1.6561609
H	-4.2274694	-3.4498889	1.0526537
H	-3.5009692	-2.6289998	2.4416799
C	-2.3566010	1.5425780	2.2050675
C	-3.1497667	0.2197870	2.1915244
C	-1.9467615	0.4599043	0.0748312
C	-2.1461561	1.8633825	0.7101701
H	-2.8879501	2.3389909	2.7344119
H	-1.3889506	1.3915442	2.6940452
H	-4.2337994	0.4049340	2.2320021
H	-2.8859863	-0.4139133	3.0452231
H	-2.2777780	0.4354011	-0.9683192
H	-1.3026781	2.5350653	0.5263213
H	-3.0430861	2.3197727	0.2764345
C	3.3276386	2.7062349	-1.0619540
H	3.7002562	3.1038036	-0.0987935
O	3.4690308	1.5088271	-1.3344149
C	2.6659259	3.7108991	-1.9629891
H	3.3654412	4.5235042	-2.2004719
H	2.3304077	3.2338111	-2.8862395
H	1.8090235	4.1696419	-1.4520227
