31
-0.00384316 (energy)
C	-0.4719621	0.1231501	0.0459013
O	-0.2476805	-0.9485321	0.6106340
O	0.5152637	0.8336355	-0.6099967
H	1.3728333	0.3571640	-0.5566526
N	-2.9385053	-0.0256457	-0.0670305
C	-2.5490323	-0.5405457	-2.4007744
H	-1.6447316	0.0510615	-2.4731301
H	-2.8643494	-1.0512314	-3.3014308
C	-3.2689431	-0.6719309	-1.2608442
C	-4.5063467	-1.5405771	-1.2106279
H	-5.3881786	-0.9737801	-0.8861336
H	-4.7143985	-1.9539452	-2.1995126
H	-4.3821103	-2.3796373	-0.5144529
C	-2.7427282	0.5429794	2.2311551
C	-3.6384447	-0.2037335	1.2216091
C	-1.7996091	0.8762910	0.0226517
C	-2.0269970	1.6082009	1.3738613
H	-3.3189985	0.9819485	3.0509291
H	-2.0082563	-0.1469483	2.6587161
H	-4.6484534	0.2318465	1.1870089
H	-3.7390746	-1.2628367	1.4826294
H	-1.7782671	1.5753330	-0.8195003
H	-1.0967271	1.9700578	1.8211541
H	-2.6770480	2.4728457	1.1985752
C	3.2724078	0.4188251	2.2995767
H	3.1524823	1.5008553	2.1010535
O	3.2665392	-0.3875209	1.3626755
C	3.4350769	0.0413247	3.7452981
H	2.5649565	0.3791237	4.3239424
H	3.5466774	-1.0401642	3.8477854
H	4.3133238	0.5449808	4.1705348
