31
-0.00369085 (energy)
C	-0.3077423	0.1013267	-0.3674897
O	-0.9140080	0.0545585	0.7039498
O	1.0548243	-0.1114549	-0.4554825
H	1.4293786	-0.3034932	0.4322825
N	-2.2437585	-0.0708729	-1.8974955
C	-1.4819835	-2.3494045	-2.1994310
H	-0.4366642	-2.1162627	-2.0383519
H	-1.7183487	-3.3847387	-2.4082883
C	-2.4729720	-1.4278886	-2.1383994
C	-3.9205669	-1.8187231	-2.3382813
H	-4.3848607	-1.2543042	-3.1568445
H	-3.9922323	-2.8818064	-2.5765451
H	-4.5162228	-1.6353480	-1.4351290
C	-2.5158705	2.2037267	-1.2686301
C	-3.2932402	0.9560777	-1.7356844
C	-0.8980552	0.4577625	-1.7294341
C	-1.0990823	1.9938992	-1.8436122
H	-2.9764283	3.1331564	-1.6162761
H	-2.4747102	2.2290415	-0.1750476
H	-3.8133569	1.1439031	-2.6871280
H	-4.0437889	0.6525764	-0.9977677
H	-0.2219078	0.0779585	-2.5020328
H	-0.3287764	2.5621946	-1.3143839
H	-1.0593922	2.2744195	-2.9022127
C	3.4221819	-2.3854233	-1.1066002
H	2.9484437	-1.6680821	-1.8034334
O	4.0440105	-1.9733092	-0.1209515
C	3.2464240	-3.8368558	-1.4552130
H	3.6593443	-4.0382674	-2.4526984
H	3.7435680	-4.4701430	-0.7173973
H	2.1783519	-4.0883089	-1.4977177
