31
-0.00363461 (energy)
C	-0.3077423	-0.1013267	0.3674897
O	-0.9140080	-0.0545586	-0.7039498
O	1.0548243	0.1114549	0.4554825
H	1.4293786	0.3034932	-0.4322825
N	-2.2437585	0.0708730	1.8974954
C	-1.4819835	2.3494046	2.1994309
H	-0.4366642	2.1162628	2.0383518
H	-1.7183487	3.3847388	2.4082881
C	-2.4729720	1.4278887	2.1383993
C	-3.9205669	1.8187232	2.3382812
H	-4.3848607	1.2543044	3.1568444
H	-3.9922323	2.8818066	2.5765449
H	-4.5162228	1.6353481	1.4351289
C	-2.5158705	-2.2037266	1.2686302
C	-3.2932402	-0.9560776	1.7356844
C	-0.8980552	-0.4577624	1.7294341
C	-1.0990823	-1.9938991	1.8436123
H	-2.9764283	-3.1331563	1.6162762
H	-2.4747102	-2.2290415	0.1750477
H	-3.8133569	-1.1439030	2.6871281
H	-4.0437889	-0.6525763	0.9977677
H	-0.2219078	-0.0779584	2.5020328
H	-0.3287764	-2.5621946	1.3143841
H	-1.0593922	-2.2744193	2.9022129
C	3.5075194	-2.9182047	-1.0029590
H	4.5072776	-3.2872937	-0.7048991
O	3.2801270	-1.7036515	-1.0370953
C	2.5019296	-3.9814860	-1.3454501
H	2.3540062	-4.6515061	-0.4879895
H	1.5484758	-3.5294981	-1.6268920
H	2.8745998	-4.6015798	-2.1715335
