31
-0.00359669 (energy)
C	-0.1634942	0.4613313	0.0215447
O	-1.0996516	-0.3341129	0.1143133
O	1.1469948	0.0468669	-0.1214382
H	1.1953272	-0.9341916	-0.1434519
N	-1.4594616	2.4994187	-0.5126813
C	-0.6403593	2.1265878	-2.7606227
H	0.2868273	1.6659184	-2.4426558
H	-0.7910365	2.2196974	-3.8283463
C	-1.5924579	2.5639165	-1.9020038
C	-2.8843886	3.1686076	-2.4054909
H	-3.0407169	4.1805152	-2.0107916
H	-2.8702409	3.2286370	-3.4955588
H	-3.7530182	2.5652895	-2.1129057
C	-1.9302479	2.4040902	1.8138167
C	-2.5009945	2.8814949	0.4627414
C	-0.2523946	1.9824232	0.1152694
C	-0.4022470	2.4225437	1.5974985
H	-2.2441287	3.0423283	2.6450457
H	-2.2655971	1.3826030	2.0196378
H	-2.6643315	3.9697800	0.4615703
H	-3.4586620	2.3987149	0.2396852
H	0.6472204	2.4037039	-0.3446768
H	0.1405970	1.7720129	2.2892669
H	-0.0028878	3.4375334	1.7033761
C	3.5721756	-2.0824147	-2.4647168
H	4.0393135	-1.2278657	-2.9901795
O	3.4990716	-2.0862077	-1.2307583
C	3.0602687	-3.1837496	-3.3502058
H	3.8790159	-3.5901948	-3.9588948
H	2.6175370	-3.9818370	-2.7505210
H	2.3114489	-2.7887262	-4.0495188
