31
-0.00360673 (energy)
C	0.0320651	-0.4659015	-0.1382868
O	1.1473069	0.0649019	-0.1282447
O	-1.1134037	0.2127001	0.2030410
H	-0.9198622	1.1416665	0.4594872
N	0.5897903	-2.4535929	-1.5111104
C	-0.3674762	-1.0194486	-3.2102039
H	-1.0662732	-0.5367443	-2.5376663
H	-0.3867605	-0.6944795	-4.2429306
C	0.5042250	-1.9857166	-2.8212669
C	1.4527046	-2.6217183	-3.8148194
H	1.2384794	-3.6884265	-3.9568188
H	1.3632853	-2.1305521	-4.7858883
H	2.4955192	-2.5409950	-3.4849290
C	0.6857004	-4.0874923	0.1871107
C	1.4457192	-3.5644846	-1.0425533
C	-0.2671945	-1.9265197	-0.4515647
C	0.0573507	-2.8145718	0.7920054
H	-0.0971034	-4.7868207	-0.1276990
H	1.3397452	-4.6029320	0.8958200
H	1.5572475	-4.3285485	-1.8144542
H	2.4500105	-3.2101066	-0.7662416
H	-1.3262701	-2.0004603	-0.7284607
H	0.7859983	-2.3058692	1.4333589
H	-0.8373418	-3.0134220	1.3857639
C	4.4612833	1.8392478	-2.7529079
H	3.6209389	2.2514844	-3.3432172
O	5.6257943	2.0057318	-3.1326570
C	4.0714970	1.0943962	-1.5069782
H	3.4141095	0.2520764	-1.7607216
H	4.9590363	0.7243783	-0.9893514
H	3.5006510	1.7513187	-0.8373508
