31
-0.00384659 (energy)
C	-0.4598776	0.1131909	0.1136486
O	0.1914323	-0.1435140	1.1312513
O	0.0880428	0.0694885	-1.1461041
H	1.0402123	-0.1729058	-1.1174701
N	-2.7342528	-0.0818635	1.0810113
C	-2.5139840	-2.2703939	0.0701384
H	-1.8924854	-1.9293114	-0.7490257
H	-2.7486954	-3.3272460	0.0919427
C	-2.9952002	-1.4504305	1.0401383
C	-3.8621532	-1.9928713	2.1561170
H	-4.8790360	-1.5824923	2.1178909
H	-3.9369386	-3.0794248	2.0785051
H	-3.4497847	-1.7475394	3.1423070
C	-3.2748889	2.2057888	1.2737295
C	-3.3023475	0.8793647	2.0503147
C	-1.9118180	0.5721933	0.0657887
C	-2.0005144	2.0931827	0.4109799
H	-4.1622701	2.2828197	0.6353190
H	-3.2519464	3.0772690	1.9338185
H	-4.3147138	0.5929109	2.3420710
H	-2.6896593	0.9414689	2.9620654
H	-2.2951309	0.3693645	-0.9420364
H	-1.1243247	2.3942599	0.9963721
H	-2.0331003	2.7068176	-0.4917689
C	4.3333511	0.2996964	0.7606857
H	4.4838245	-0.7899818	0.8812760
O	3.2617844	0.7325318	0.3220394
C	5.4981928	1.1610083	1.1611398
H	6.3859543	0.8927379	0.5729585
H	5.2629000	2.2166336	1.0099132
H	5.7519053	0.9866999	2.2152081
