31
-0.00360455 (energy)
C	-0.2792348	-0.1592621	0.3658950
O	0.8738000	-0.5878755	0.4773344
O	-0.6692568	0.6539546	-0.6712477
H	0.0785530	0.8475839	-1.2791046
N	-1.3996985	-1.7247327	1.9280992
C	-1.8807396	-2.8124765	-0.1803268
H	-1.9311925	-1.8910444	-0.7478167
H	-2.0465235	-3.7297858	-0.7312903
C	-1.6258686	-2.8608069	1.1529075
C	-1.5726559	-4.1840571	1.8860074
H	-2.3762045	-4.2710174	2.6280790
H	-1.6798328	-5.0090884	1.1788643
H	-0.6228526	-4.3113451	2.4193719
C	-1.6899728	-0.2905625	3.7778769
C	-1.2118281	-1.7004010	3.3945074
C	-1.4222494	-0.3839863	1.3477918
C	-1.2683100	0.5745384	2.5717059
H	-2.7801086	-0.2838421	3.8897067
H	-1.2481007	0.0614789	4.7141127
H	-1.7998083	-2.4817847	3.8800812
H	-0.1564197	-1.8486282	3.6677744
H	-2.3637016	-0.2014807	0.8147447
H	-0.2208269	0.8789479	2.6773177
H	-1.8735479	1.4756634	2.4524336
C	3.4156577	-1.8655510	0.9207600
H	3.3779023	-1.1523601	1.7660506
O	3.9545691	-1.5383857	-0.1425130
C	2.7807441	-3.2038239	1.1756881
H	1.7226036	-3.0754957	1.4401071
H	2.8637822	-3.8407980	0.2925429
H	3.2639309	-3.6941510	2.0312132
