31
-0.00385931 (energy)
C	0.4253386	-0.0473401	0.2325115
O	0.5805087	0.5261895	-0.8503566
O	-0.8041462	-0.4747375	0.6738753
H	-1.5151448	-0.2529093	0.0324121
N	2.7894198	-0.6601445	0.6593723
C	1.9709074	-2.7434040	-0.2626443
H	0.9682633	-2.6286909	0.1312762
H	2.1647221	-3.6392404	-0.8391981
C	2.9630443	-1.8364709	-0.0678486
C	4.3445062	-2.0606967	-0.6445150
H	5.0989123	-2.1853023	0.1424205
H	4.3519070	-2.9621609	-1.2605689
H	4.6625243	-1.2167771	-1.2685907
C	3.3274481	0.9638163	2.2829664
C	3.8476619	0.3187647	0.9881593
C	1.5068257	-0.3191971	1.2705790
C	1.7966558	0.9792747	2.0893599
H	3.5968592	0.3418252	3.1440655
H	3.7341702	1.9659186	2.4444899
H	4.8107168	-0.1752952	1.1313139
H	3.9643776	1.0684367	0.1913518
H	1.1526429	-1.1292055	1.9203641
H	1.5017385	1.8601831	1.5079271
H	1.2413423	0.9913658	3.0295970
C	3.1530439	4.9526242	-0.1574485
H	3.0680328	4.9419696	-1.2607356
O	3.3102582	3.8946646	0.4622428
C	3.0635984	6.3087632	0.4843961
H	2.1061119	6.7836105	0.2318360
H	3.1570227	6.2251780	1.5692289
H	3.8544677	6.9636186	0.0951615
