31
-0.00391897 (energy)
C	-0.3283614	-0.1131909	0.3414414
O	-0.8839763	0.1435141	-0.7314108
O	1.0365767	-0.0694886	0.4968047
H	1.4878636	0.1729056	-0.3421154
N	-2.3033095	0.0818637	1.8274269
C	-1.3177332	2.2703940	2.1421049
H	-0.2975671	1.9293115	2.0134533
H	-1.4539718	3.3272462	2.3344688
C	-2.3983859	1.4504307	2.0738505
C	-3.7983284	1.9928717	2.2666646
H	-4.2736649	1.5824927	3.1664240
H	-3.7685071	3.0794251	2.3702366
H	-4.4462098	1.7475398	1.4164481
C	-2.7405266	-2.2057885	2.1992725
C	-3.4267983	-0.8793644	1.8347598
C	-1.0128836	-0.5721932	1.6227888
C	-1.3561763	-2.0931825	1.5270065
H	-2.6313374	-2.2828194	3.2869724
H	-3.3007093	-3.0772687	1.8493592
H	-4.1856498	-0.5929105	2.5656167
H	-3.9100535	-0.9414685	0.8482810
H	-0.3317378	-0.3693645	2.4586599
H	-1.4250461	-2.3942597	0.4755078
H	-0.5906658	-2.7068176	2.0066010
C	2.8937546	0.4047900	-3.0885166
H	2.9407203	1.4912202	-2.8834640
O	3.4029062	-0.3976492	-2.2980305
C	2.1869544	0.0166387	-4.3569212
H	2.6770077	0.4852473	-5.2208081
H	2.1879923	-1.0686363	-4.4783866
H	1.1527115	0.3852795	-4.3408319
