31
-0.00679782 (energy)
C	-0.4598776	0.0136573	0.1598176
O	0.1914323	-0.8370925	0.7743397
O	0.0880428	0.7899328	-0.8333003
H	1.0402123	0.5858425	-0.9671733
N	-2.7342528	-0.7575719	0.7754818
C	-2.5139840	-1.7843066	-1.4056521
H	-1.8924854	-0.9964737	-1.8139245
H	-2.7486954	-2.6079177	-2.0682806
C	-2.9952002	-1.7796822	-0.1355268
C	-3.8621532	-2.9125533	0.3706882
H	-4.8790360	-2.5736136	0.6051919
H	-3.9369386	-3.6950135	-0.3871891
H	-3.4497847	-3.3585290	1.2838498
C	-3.2748889	0.8709944	2.3935872
C	-3.3023475	-0.6442846	2.1358769
C	-1.9118180	0.3960373	0.4181958
C	-2.0005144	1.3392980	1.6603009
H	-4.1622701	1.3403659	1.9540510
H	-3.2519464	1.1142899	3.4594214
H	-4.3147138	-1.0512584	2.1752462
H	-2.6896593	-1.1827722	2.8742381
H	-2.2951309	0.8884790	-0.4842188
H	-1.1243247	1.1936536	2.3022660
H	-2.0331003	2.3896455	1.3631922
C	3.2052425	-2.2311731	-0.9213411
H	3.0864279	-2.5970587	0.1162493
O	3.3257859	-1.0208291	-1.1416790
C	3.2060812	-3.2932590	-1.9848499
H	2.2674411	-3.8623354	-1.9508837
H	3.3278226	-2.8446515	-2.9730336
H	4.0178626	-4.0098271	-1.8022179
