31
-0.00397602 (energy)
C	-0.4710137	0.0300702	0.1202392
O	-0.2070233	-1.0864367	-0.3372962
O	0.4747239	1.0189022	0.2502205
H	1.3596772	0.7137814	-0.0497141
N	-2.9390848	-0.0652079	-0.0946244
C	-2.3863608	1.1761133	-2.0980379
H	-1.5221725	1.6656172	-1.6653809
H	-2.6143748	1.4185123	-3.1284522
C	-3.1703157	0.2981594	-1.4202323
C	-4.3666724	-0.3483811	-2.0850438
H	-5.3091554	-0.0417570	-1.6142679
H	-4.4104027	-0.0626902	-3.1379840
H	-4.3164697	-1.4425148	-2.0288526
C	-3.5130302	-0.4586999	2.1589353
C	-3.8044406	-0.9377848	0.7275734
C	-1.8190223	0.4837043	0.6663104
C	-2.0204321	-0.0699835	2.1131333
H	-4.1285464	0.4176109	2.3916718
H	-3.7172351	-1.2286158	2.9081025
H	-4.8555403	-0.8170492	0.4579894
H	-3.5405393	-1.9986864	0.6035699
H	-1.8345220	1.5806922	0.6537813
H	-1.3972991	-0.9591185	2.2620766
H	-1.7422944	0.6698543	2.8666881
C	4.1482952	2.5576286	0.0399442
H	4.1742939	2.5407069	-1.0662296
O	3.9402114	1.5152631	0.6709652
C	4.3786500	3.9020968	0.6711493
H	3.6226838	4.6178634	0.3215206
H	4.3361311	3.8256974	1.7596951
H	5.3560234	4.2995793	0.3669085
