31
-0.00313142 (energy)
C	-1.2938613	-0.8524256	-2.2333843
O	-2.4912689	-0.8915012	-1.9328755
O	-0.7812712	-1.5217104	-3.3189316
H	-1.4781084	-2.0270456	-3.7935430
N	-0.6462527	1.1233638	-0.8830221
C	-0.9528079	2.1688497	-3.0447415
H	-0.6352450	1.3012407	-3.6104587
H	-1.2425246	3.0406950	-3.6178483
C	-1.0002476	2.2049093	-1.6878119
C	-1.4512690	3.4527608	-0.9593172
H	-0.6418941	3.8901225	-0.3613626
H	-1.7821556	4.2067061	-1.6764611
H	-2.2826607	3.2420547	-0.2757991
C	0.4564806	0.0366986	0.8962807
C	-0.5842955	1.1270256	0.5942687
C	-0.1930359	-0.1421355	-1.4557108
C	0.2259021	-1.0024447	-0.2208863
H	1.4667547	0.4553426	0.8253541
H	0.3342729	-0.3942670	1.8938054
H	-0.2797370	2.1045470	0.9734248
H	-1.5593848	0.8777977	1.0388127
H	0.6522747	0.0145178	-2.1373922
H	-0.5915960	-1.6768978	0.0581295
H	1.1079527	-1.6089852	-0.4368970
C	5.1278873	-1.3235081	-0.5014512
H	5.6722075	-0.3988435	-0.2307231
O	3.8926535	-1.3494975	-0.4622829
C	5.9905860	-2.4874375	-0.9015732
H	6.6772150	-2.7468943	-0.0847075
H	5.3731689	-3.3529729	-1.1510154
H	6.6130079	-2.2169175	-1.7648363
