31
-0.00339334 (energy)
C	-0.4598776	-0.0418271	0.1548505
O	0.1914323	-1.0514494	0.4413388
O	0.0880428	1.0272995	-0.5128732
H	1.0402123	0.8813046	-0.7084757
N	-2.7342528	-0.9771151	0.4696097
C	-2.5139840	-1.1959384	-1.9311497
H	-1.8924854	-0.3159803	-2.0453456
H	-2.7486954	-1.7432474	-2.8355084
C	-2.9952002	-1.6260013	-0.7360407
C	-3.8621532	-2.8636877	-0.6478189
H	-4.8790360	-2.6253935	-0.3115333
H	-3.9369386	-3.3397505	-1.6276078
H	-3.4497847	-3.5950874	0.0577397
C	-3.2748889	-0.0001880	2.5471339
C	-3.3023475	-1.3359424	1.7867094
C	-1.9118180	0.2291219	0.5284283
C	-2.0005144	0.6906721	2.0182394
H	-4.1622701	0.5912072	2.2946394
H	-3.2519464	-0.1361018	3.6319024
H	-4.3147138	-1.7318377	1.6845112
H	-2.6896593	-2.0944896	2.2963684
H	-2.2951309	1.0005098	-0.1511391
H	-1.1243247	0.3342461	2.5716760
H	-2.0331003	1.7792930	2.0982885
C	3.5270360	2.8682865	-0.1425776
H	3.5634560	2.8570072	0.9633741
O	3.6776269	1.8189275	-0.7783294
C	3.2888329	4.2143243	-0.7674932
H	4.0778992	4.9158434	-0.4653472
H	3.2679923	4.1320418	-1.8562411
H	2.3386232	4.6334136	-0.4107315
