31
-0.00516443 (energy)
C	-0.4598776	-0.0674945	-0.1455083
O	0.1914323	0.5217698	-1.0139438
O	0.0880428	-0.4572885	1.0532191
H	1.0402123	-0.2197191	1.1092156
N	-2.7342528	0.4466542	-0.9878194
C	-2.5139840	2.1574611	0.7106120
H	-1.8924854	1.5567778	1.3637174
H	-2.7486954	3.1580347	1.0515875
C	-2.9952002	1.7187071	-0.4813337
C	-3.8621532	2.6101220	-1.3444850
H	-4.8790360	2.2114178	-1.4489221
H	-3.9369386	3.6046034	-0.8999305
H	-3.4497847	2.7168823	-2.3551089
C	-3.2748889	-1.6371222	-1.9513385
C	-3.3023475	-0.1250835	-2.2274260
C	-1.9118180	-0.5151848	-0.2575228
C	-2.0005144	-1.8263848	-1.1021055
H	-4.1622701	-1.9278568	-1.3777750
H	-3.2519464	-2.2302819	-2.8696831
H	-4.3147138	0.2438816	-2.4036143
H	-2.6896593	0.1283948	-3.1054323
H	-2.2951309	-0.6692846	0.7588946
H	-1.1243247	-1.9090889	-1.7551687
H	-2.0331003	-2.7117714	-0.4636747
C	3.3296913	-2.8435609	0.2883833
H	4.1094998	-3.3845896	-0.2806242
O	3.5366770	-1.6895209	0.6799964
C	2.0576725	-3.6075042	0.5280434
H	2.2714390	-4.5337994	1.0778870
H	1.3478724	-3.0002896	1.0937738
H	1.6090297	-3.9037261	-0.4294458
