31
-0.00295437 (energy)
C	-2.3113812	0.1281555	0.8875314
O	-2.1939924	1.1659923	1.5468734
O	-3.5347491	-0.3962678	0.5448147
H	-4.2728242	0.1473337	0.8997011
N	0.0000000	0.0000000	0.0000000
C	-1.1239530	1.0152343	-1.8884058
H	-2.0674965	0.5127752	-1.7126562
H	-1.0836290	1.6857287	-2.7377071
C	-0.0243524	0.8426234	-1.1100146
C	1.2652850	1.5743989	-1.4143142
H	2.0703638	0.8824418	-1.6917422
H	1.1168762	2.2655742	-2.2464598
H	1.6156837	2.1502047	-0.5491700
C	0.8601479	-1.6981515	1.3925544
C	1.1852356	-0.3050416	0.8297028
C	-1.1757732	-0.7663046	0.4064489
C	-0.6709050	-1.6633604	1.5815368
H	1.1372855	-2.4687706	0.6643457
H	1.3877983	-1.9057740	2.3275408
H	2.0970974	-0.3051010	0.2292270
H	1.3101922	0.4298090	1.6389700
H	-1.5558727	-1.3742720	-0.4240207
H	-0.9191350	-1.1954215	2.5409403
H	-1.1329252	-2.6525382	1.5564436
C	2.0255041	-1.2670544	-4.1492121
H	1.8806165	-0.1773761	-4.2764593
O	2.6435617	-1.6998899	-3.1700950
C	1.4288612	-2.1283662	-5.2268193
H	1.8539488	-1.8600959	-6.2032303
H	1.6186483	-3.1839915	-5.0213614
H	0.3467499	-1.9540576	-5.2936405
