31
-0.00295375 (energy)
C	-2.3411149	0.1281554	-0.8058389
O	-2.6750067	1.1659923	-0.2252977
O	-3.0579749	-0.3962680	-1.8547409
H	-3.8514898	0.1473334	-2.0573078
N	0.0000000	0.0000000	0.0000000
C	0.3528462	1.0152341	-2.1690659
H	-0.4829198	0.5127749	-2.6409320
H	0.9296564	1.6857284	-2.7937487
C	0.6948487	0.8426233	-0.8659740
C	1.8783682	1.5743988	-0.2701180
H	2.6734216	0.8824418	0.0348547
H	2.2995734	2.2655741	-1.0029739
H	1.5906851	2.1502048	0.6178528
C	-0.2362054	-1.6981513	1.6196511
C	0.3746203	-0.3050414	1.3974440
C	-1.1619548	-0.7663047	-0.4444146
C	-1.5305354	-1.6633603	0.7802781
H	0.4441780	-2.4687705	1.2399517
H	-0.4329995	-1.9057737	2.6750594
H	1.4591254	-0.3051009	1.5235865
H	-0.0498443	0.4298092	2.0976991
H	-0.9193122	-1.3742722	-1.3249144
H	-2.3373833	-1.1954213	1.3556645
H	-1.8683338	-2.6525382	0.4640748
C	2.7262801	-3.2755383	-0.9603286
H	2.4856393	-2.8888729	-1.9688744
O	2.9368251	-2.4899914	-0.0294156
C	2.7706384	-4.7727536	-0.8360028
H	3.5186631	-5.1868584	-1.5252220
H	3.0137703	-5.0642925	0.1879448
H	1.8024285	-5.2042831	-1.1226476
