31
-0.00281675 (energy)
C	-1.8684343	1.5776112	-0.4083080
O	-1.5326166	1.9680193	-1.5309947
O	-3.1352401	1.7635804	0.0914140
H	-3.7074255	2.2462042	-0.5456731
N	0.0000000	0.0000000	0.0000000
C	-1.7020431	-1.5452813	-0.7584210
H	-2.5285741	-0.9775803	-0.3483118
H	-1.9546292	-2.4612510	-1.2777486
C	-0.4025312	-1.1653435	-0.6501407
C	0.7052551	-2.0083999	-1.2445513
H	1.3668957	-2.4161491	-0.4700225
H	0.2811858	-2.8485149	-1.7982541
H	1.3304189	-1.4257915	-1.9319695
C	1.2845563	1.2938555	1.4962065
C	1.3975322	0.4215748	0.2354123
C	-0.9658517	0.9052308	0.6185095
C	-0.0895270	1.9783970	1.3401755
H	1.2959184	0.6604291	2.3904039
H	2.1001697	2.0174353	1.5794452
H	2.0490272	-0.4412421	0.3876106
H	1.7917387	1.0007901	-0.6129059
H	-1.6070657	0.3702995	1.3301786
H	0.0053484	2.8685979	0.7080514
H	-0.5322664	2.2825638	2.2909802
C	5.2685897	-0.2449033	-1.6694968
H	5.8129100	-0.0170282	-0.7333497
O	4.0333560	-0.2918189	-1.6724200
C	6.1312884	-0.4803521	-2.8775502
H	6.8179175	-1.3175068	-2.6938136
H	5.5138713	-0.6970966	-3.7518469
H	6.7537102	0.4025158	-3.0749047
