31
-0.00212957 (energy)
C	2.4842344	-1.6664487	1.0474018
O	2.2351654	-1.7579735	2.2537207
O	2.4652344	-2.7512468	0.2036271
H	2.2466030	-3.5796412	0.6854620
N	2.2237153	0.7875455	0.8093662
C	0.0502549	0.0531934	0.0368091
H	0.4139337	-0.8753001	-0.3865880
H	-1.0123105	0.2419359	-0.0516916
C	0.8494292	0.9611576	0.6546521
C	0.2757229	2.2418256	1.2221103
H	0.6607368	3.1268340	0.7001455
H	-0.8116531	2.2418532	1.1229723
H	0.5227817	2.3581547	2.2842947
C	4.4953042	1.4142424	0.7097888
C	3.1619275	1.7751346	1.3844019
C	2.9070062	-0.4029152	0.3085840
C	4.4222374	-0.1200404	0.5625304
H	4.5555440	1.8896878	-0.2757415
H	5.3613314	1.7327681	1.2965253
H	2.8476081	2.7957945	1.1574224
H	3.2315020	1.6752203	2.4778869
H	2.7033531	-0.5539844	-0.7588818
H	4.7401504	-0.6011188	1.4944826
H	5.0426617	-0.5072764	-0.2484487
C	5.1908493	-2.4905268	6.0848433
H	5.2272692	-1.5383841	6.6475872
O	5.3414402	-3.5657834	6.6757390
C	4.9526461	-2.3587008	4.6066825
H	5.7417124	-1.7462752	4.1502220
H	4.9318055	-3.3427254	4.1335674
H	4.0024363	-1.8401915	4.4221214
