31
-0.00273003 (energy)
C	2.2119668	-0.9703181	1.2467550
O	2.5545429	-1.9634071	0.5971142
O	2.6408467	-0.7433885	2.5327053
H	3.2258236	-1.4663304	2.8510743
N	1.3744660	0.4177829	-0.6289815
C	3.5966168	1.3438449	-0.3750084
H	3.6412305	1.1793285	0.6948381
H	4.4661071	1.8004995	-0.8310287
C	2.5267513	1.0104635	-1.1425065
C	2.5290259	1.2714576	-2.6335246
H	1.7672702	2.0077037	-2.9191688
H	3.5013965	1.6583559	-2.9450052
H	2.3260655	0.3564747	-3.2031030
C	-0.9467614	0.1536157	-0.3050992
C	0.1423561	0.1180372	-1.3894406
C	1.2390718	0.1107770	0.7930882
C	-0.2301165	-0.3979248	0.9452091
H	-1.2701769	1.1867511	-0.1348625
H	-1.8250921	-0.4396583	-0.5739541
H	-0.0289395	0.8610722	-2.1708625
H	0.1943110	-0.8721519	-1.8662625
H	1.4175677	1.0023641	1.4070844
H	-0.2482017	-1.4936402	0.9342301
H	-0.6750089	-0.0602411	1.8836150
C	7.0401871	-3.8041600	0.3342996
H	6.8605160	-4.2883609	1.3129980
O	7.9558491	-4.2014781	-0.3948873
C	6.1109628	-2.6732745	-0.0073410
H	6.1764621	-1.8868984	0.7564452
H	6.3595752	-2.2564486	-0.9856174
H	5.0712566	-3.0265692	-0.0100416
