31
-0.00212572 (energy)
C	-1.9761841	1.6664488	1.8338939
O	-1.3295504	1.7579737	2.8822762
O	-2.2469179	2.7512469	1.0345067
H	-1.8766744	3.5796412	1.4125069
N	-1.8127892	-0.7875455	1.5211110
C	-0.0346347	-0.0531934	0.0517774
H	-0.5211914	0.8753001	-0.2217003
H	0.9335811	-0.2419359	-0.3948048
C	-0.5742981	-0.9611576	0.9056938
C	0.1588916	-2.2418256	1.2427109
H	-0.3814255	-3.1268339	0.8839070
H	1.1467836	-2.2418531	0.7776471
H	0.2900208	-2.3581546	2.3253368
C	-3.9814420	-1.4142423	2.2044681
C	-2.4977465	-1.7751345	2.3823554
C	-2.6261503	0.4029153	1.2842289
C	-3.9631471	0.1200405	2.0411002
H	-4.3751202	-1.8896878	1.2989759
H	-4.5945657	-1.7327680	3.0520189
H	-2.2800144	-2.7957944	2.0615608
H	-2.1891312	-1.6752202	3.4336910
H	-2.7998738	0.5539844	0.2114857
H	-3.9431411	0.6011190	3.0255813
H	-4.8235264	0.5072764	1.4912266
C	3.0818092	2.0749309	-0.1008579
H	2.1956952	2.0655786	0.5619371
O	3.5916180	1.0106998	-0.4689876
C	3.5819668	3.4373426	-0.4916964
H	3.8458179	4.0141935	0.4047814
H	4.4542451	3.3519695	-1.1431707
H	2.7898935	3.9968996	-1.0067976
