31
-0.00267304 (energy)
C	-0.4598776	0.1315774	-0.0917364
O	0.1914323	1.0891441	0.3377735
O	0.0880428	-1.1166256	-0.2674517
H	1.0402123	-1.1305179	-0.0237677
N	-2.7342528	1.0503729	0.2683355
C	-2.5139840	-0.3251770	2.2480809
H	-1.8924854	-1.0726678	1.7699339
H	-2.7486954	-0.4872245	3.2926633
C	-2.9952002	0.7724716	1.6090133
C	-3.8621532	1.7773023	2.3370010
H	-4.8790360	1.8109185	1.9262187
H	-3.9369386	1.5121914	3.3935700
H	-3.4497847	2.7911112	2.2666463
C	-3.2748889	1.6374100	-1.9510970
C	-3.3023475	2.1718659	-0.5099717
C	-1.9118180	0.1641495	-0.5520763
C	-2.0005144	0.7682136	-1.9900166
H	-4.1622701	1.0220746	-2.1378165
H	-3.2519464	2.4388017	-2.6947142
H	-4.3147138	2.4094476	-0.1772068
H	-2.6896593	3.0805493	-0.4128085
H	-2.2951309	-0.8635853	-0.5273359
H	-1.1243247	1.3969939	-2.1848675
H	-2.0331003	-0.0142638	-2.7510898
C	4.8766474	1.5665474	1.7758610
H	4.7764928	1.2150475	2.8203703
O	5.7335649	2.4085685	1.4848194
C	3.9190177	0.9531789	0.7931085
H	2.8836249	1.1518876	1.1005549
H	4.0883982	1.3556861	-0.2078286
H	4.0411185	-0.1379981	0.7777021
