31
-0.00592355 (energy)
C	-0.4253386	-0.1857202	-0.1476845
O	-0.5805087	0.9496833	0.3131828
O	0.8041463	-0.7968287	-0.2110629
H	1.5151448	-0.2145738	0.1377379
N	-2.7894197	-0.9295365	-0.0807758
C	-1.9709073	-1.9327448	1.9646234
H	-0.9682632	-2.0980767	1.5891267
H	-2.1647220	-2.2483935	2.9821219
C	-2.9630442	-1.3632061	1.2324359
C	-4.3445061	-1.1642990	1.8183175
H	-5.0989122	-1.7655849	1.2955849
H	-4.3519070	-1.4588688	2.8696922
H	-4.6625243	-0.1166711	1.7539261
C	-3.3274481	-0.7291368	-2.3683829
C	-3.8476618	-0.3909889	-0.9618720
C	-1.5068257	-1.0612317	-0.7681440
C	-1.7966558	-0.5928470	-2.2300082
H	-3.5968591	-1.7591136	-2.6282148
H	-3.7341702	-0.0653073	-3.1362560
H	-4.8107167	-0.8614787	-0.7539591
H	-3.9643776	0.6954712	-0.8333619
H	-1.1526428	-2.0994080	-0.7452447
H	-1.5017385	0.4557058	-2.3508419
H	-1.2413422	-1.1879575	-2.9580435
C	2.9609760	2.0088834	1.8701805
H	2.7423820	2.6705354	1.0105199
O	3.5390197	0.9309763	1.6913122
C	2.5104913	2.5200832	3.2098880
H	1.4255628	2.6901989	3.2037604
H	2.7658254	1.8071109	3.9966865
H	2.9819294	3.4887973	3.4223793
