31
-0.00205836 (energy)
C	2.3411149	0.1551863	-0.8010725
O	2.6750067	-1.0186181	-0.6105031
O	3.0579750	1.0067286	-1.6073547
H	3.8514899	0.5651922	-1.9836279
N	0.0000000	0.0000000	0.0000000
C	-0.3528460	-0.2121441	-2.3854857
H	0.4829199	0.4214007	-2.6570437
H	-0.9296563	-0.6285487	-3.2018180
C	-0.6948486	-0.4956265	-1.1019435
C	-1.8783682	-1.3870653	-0.7923039
H	-2.6734216	-0.8411451	-0.2690602
H	-2.2995734	-1.7859062	-1.7173590
H	-1.5906852	-2.2318497	-0.1548213
C	0.2362053	1.0417873	2.1027760
C	-0.3746204	-0.1913086	1.4174982
C	1.1619549	0.8720895	-0.1555215
C	1.5305353	1.2961767	1.3021242
H	-0.4441780	1.8957973	2.0095423
H	0.4329993	0.8759178	3.1655465
H	-1.4591255	-0.2343960	1.5360536
H	0.0498442	-1.1213436	1.8241892
H	0.9193123	1.7445407	-0.7749837
H	2.3373832	0.6596643	1.6827661
H	1.8683337	2.3338478	1.3433089
C	1.6604991	-3.0122331	-5.4772060
H	1.8790932	-4.0875469	-5.3340286
O	1.0824553	-2.6281843	-6.5001351
C	2.1109837	-2.1076119	-4.3646404
H	3.1959122	-2.1979764	-4.2203797
H	1.8556496	-1.0697384	-4.5886935
H	1.6395456	-2.4079459	-3.4194637
