31
-0.00209736 (energy)
C	1.2297771	-0.7453775	2.8244615
O	0.2635724	-0.5700808	3.5736857
O	1.7575901	-1.9900025	2.5766200
H	1.2803913	-2.6902619	3.0747363
N	1.1832141	1.4409826	1.6564374
C	0.0148371	0.0706779	0.0386588
H	0.5655856	-0.8327983	0.2711118
H	-0.7422481	-0.0087508	-0.7314155
C	0.2298983	1.2614573	0.6555881
C	-0.5743414	2.4874398	0.2795247
H	0.0561089	3.2669633	-0.1663433
H	-1.3435950	2.2224356	-0.4486486
H	-1.0678423	2.9293635	1.1535765
C	2.9873594	2.5031960	2.7425052
C	1.5323007	2.7259361	2.2993008
C	2.0285420	0.3413282	2.1158361
C	3.0260429	1.0067963	3.1171237
H	3.6669924	2.7050005	1.9068493
H	3.2736278	3.1466318	3.5790233
H	1.4374176	3.5564715	1.5969679
H	0.8827192	2.9338392	3.1626392
H	2.5586885	-0.1250817	1.2760824
H	2.6705311	0.8687965	4.1445512
H	4.0226028	0.5668328	3.0405362
C	3.5100729	-4.7483256	0.3268713
H	4.5038196	-5.2128663	0.1810902
O	2.5986061	-5.3896658	0.8615891
C	3.3802243	-3.3332814	-0.1628913
H	3.6030934	-3.2835771	-1.2370914
H	2.3718936	-2.9562344	0.0206342
H	4.1125708	-2.6900134	0.3427649
