31
-0.00263202 (energy)
C	1.9243153	0.6532769	1.4201616
O	2.4366279	1.4810000	0.6598802
O	2.2391978	0.5814476	2.7561231
H	2.9155760	1.2501933	3.0041021
N	0.0000000	0.0000000	0.0000000
C	-1.0734310	1.6098575	1.4547000
H	-0.4494556	1.3871214	2.3118295
H	-1.8291094	2.3732113	1.5916029
C	-0.9491246	0.9888438	0.2531599
C	-1.8574745	1.3465378	-0.9036520
H	-2.5002735	0.5052910	-1.1918115
H	-2.5039294	2.1822939	-0.6282927
H	-1.2834370	1.6358824	-1.7922277
C	0.7759136	-2.0886555	-0.7734707
C	0.1259259	-0.7795976	-1.2500443
C	0.9398817	-0.4413357	1.0279647
C	1.7051036	-1.6347853	0.3718046
H	0.0066975	-2.7703572	-0.3932911
H	1.3218104	-2.5999381	-1.5711601
H	-0.8500322	-0.9470579	-1.7099637
H	0.7642936	-0.2644687	-1.9832987
H	0.4107236	-0.7580347	1.9354190
H	2.6600863	-1.2856090	-0.0370031
H	1.9143823	-2.4231677	1.0979044
C	2.8705544	-1.2806503	-4.7020831
H	2.8445555	-0.1883433	-4.8775038
O	3.0786381	-1.7210795	-3.5659778
C	2.6401996	-2.1357306	-5.9165182
H	3.3961659	-1.9157052	-6.6821229
H	2.6827186	-3.1944723	-5.6522552
H	1.6628263	-1.9051342	-6.3607929
