31
-0.00501585 (energy)
C	-1.2001266	2.1549691	0.2498466
O	-0.6863846	2.7582897	-0.6976189
O	-2.3575748	2.5797754	0.8572647
H	-2.6948565	3.4091173	0.4515126
N	0.0000000	0.0000000	0.0000000
C	-2.0748418	-0.5368450	-1.1255561
H	-2.6846684	0.1057747	-0.5020347
H	-2.5898722	-1.0866592	-1.9033410
C	-0.7321587	-0.6756667	-0.9747604
C	0.0601609	-1.5945300	-1.8798450
H	0.4985598	-2.4336133	-1.3251664
H	-0.5884197	-2.0083387	-2.6546484
H	0.8846859	-1.0636822	-2.3709309
C	1.5540282	0.2111787	1.7615847
C	1.4412658	-0.1773172	0.2784816
C	-0.6394342	0.9178510	0.9399679
C	0.5026493	1.3289801	1.9233553
H	1.2982444	-0.6474376	2.3926947
H	2.5592296	0.5464708	2.0315311
H	1.7538141	-1.2075591	0.0968826
H	2.0571750	0.4817044	-0.3515020
H	-1.4644229	0.4263783	1.4706543
H	0.9291867	2.2911521	1.6178545
H	0.1325916	1.4307498	2.9457375
C	0.9951248	1.9065388	-4.0561507
H	0.4624761	1.8656776	-3.0870281
O	2.1714936	1.5346840	-4.1329144
C	0.1920104	2.4312529	-5.2131989
H	-0.1603237	3.4488218	-4.9976506
H	0.7932719	2.4363759	-6.1248102
H	-0.7019671	1.8117050	-5.3641228
