31
-0.00548076 (energy)
C	-0.4710137	-0.0693810	-0.1027033
O	-0.2070232	1.1362787	-0.0546286
O	0.4747238	-1.0430353	0.1133548
H	1.3596771	-0.6537320	0.2908436
N	-2.9390848	0.0936391	0.0666154
C	-2.3863609	-0.3876134	2.3737651
H	-1.5221727	-0.9955741	2.1346208
H	-2.6143749	-0.2629714	3.4249432
C	-3.1703157	0.2055702	1.4365582
C	-4.3666723	1.0404987	1.8401467
H	-5.3091554	0.5913515	1.5026338
H	-4.4104027	1.1321639	2.9272990
H	-4.3164695	2.0494295	1.4131285
C	-3.5130302	-0.3073622	-2.1856202
C	-3.8044405	0.6323850	-1.0044367
C	-1.8190224	-0.6824247	-0.4606904
C	-2.0204321	-0.6569711	-2.0096316
H	-4.1285465	-1.2104254	-2.1046051
H	-3.7172350	0.1598918	-3.1529339
H	-4.8555402	0.6111340	-0.7098167
H	-3.5405391	1.6717181	-1.2507614
H	-1.8345222	-1.7089710	-0.0737248
H	-1.3972991	0.1276008	-2.4536946
H	-1.7422945	-1.6099221	-2.4647019
C	4.5609318	1.2968892	1.6894507
H	5.2444311	1.6576187	0.8974369
O	3.6394923	0.5226376	1.4075005
C	4.8453228	1.8123405	3.0723859
H	4.7984648	2.9094863	3.0834481
H	4.1258124	1.4069730	3.7869197
H	5.8635198	1.5355870	3.3765171
