31
-0.00557795 (energy)
C	-0.4710137	0.0128675	-0.1232725
O	-0.2070233	0.9055546	0.6885379
O	0.4747239	-0.8718744	-0.5836154
H	1.3596772	-0.6877383	-0.1974116
N	-2.9390848	0.0289119	0.1112203
C	-2.3863608	-1.8227561	1.5692564
H	-1.5221725	-2.1347619	0.9952716
H	-2.6143748	-2.4029590	2.4546238
C	-3.1703157	-0.7659262	1.2326053
C	-4.3666724	-0.3857557	2.0784536
H	-5.3091554	-0.5128734	1.5311974
H	-4.4104027	-1.0143441	2.9701818
H	-4.3164697	0.6616122	2.3998669
C	-3.5130302	1.1694362	-1.8718510
C	-3.8044406	1.1300742	-0.3629541
C	-1.8190223	-0.2266418	-0.7915635
C	-2.0204321	0.7884970	-1.9617601
H	-4.1285464	0.4255740	-2.3902677
H	-3.7172351	2.1491507	-2.3125112
H	-4.8555403	0.9244167	-0.1509221
H	-3.5405393	2.0845839	0.1164206
H	-1.8345220	-1.2617585	-1.1549819
H	-1.3972991	1.6749522	-1.7976190
H	-1.7422944	0.3510078	-2.9229093
C	4.0018910	1.8384513	0.5940191
H	3.9549253	2.2040856	-0.4493834
O	3.4927394	0.7526507	0.8937088
C	4.7086910	2.7428465	1.5643702
H	4.2186376	3.7252988	1.5904867
H	4.7076530	2.3054012	2.5649787
H	5.7429339	2.9132332	1.2370734
