31
-0.00561079 (energy)
C	-0.4710137	0.0890951	-0.0861612
O	-0.2070233	0.2511114	1.1095299
O	0.4747239	-0.2927539	-1.0075054
H	1.3596772	-0.3999444	-0.5932957
N	-2.9390848	-0.0493432	0.1037839
C	-2.3863608	-2.4050108	0.0304751
H	-1.5221725	-2.2750708	-0.6097762
H	-2.6143748	-3.4185752	0.3357587
C	-3.1703157	-1.3790369	0.4519026
C	-4.3666724	-1.6315102	1.3442289
H	-5.3091554	-1.3771185	0.8432967
H	-4.4104027	-2.6862287	1.6232835
H	-4.3164697	-1.0357803	2.2636808
C	-3.5130302	2.0990427	-0.6822220
C	-3.8044406	1.0989895	0.4483586
C	-1.8190223	0.3351895	-0.7520554
C	-2.0204321	1.8650188	-0.9959594
H	-4.1285464	1.8624430	-1.5574977
H	-3.7172351	3.1327985	-0.3900390
H	-4.8555403	0.8051551	0.4785906
H	-3.5405393	1.5220502	1.4291281
H	-1.8345220	-0.2241550	-1.6958102
H	-1.3972991	2.4385751	-0.3004175
H	-1.7422944	2.1476974	-2.0134550
C	4.9549286	-0.3724940	0.1601078
H	4.7538650	-1.3722495	0.5898115
O	4.0157718	0.3659234	-0.1572821
C	6.4067993	-0.0153083	0.0065894
H	6.9099207	-0.7485427	-0.6378353
H	6.5114725	0.9834373	-0.4225114
H	6.9099870	-0.0526249	0.9818960
