31
-0.00500399 (energy)
C	-0.4710137	-0.1236342	0.0087341
O	-0.2070233	0.5208296	-1.0113605
O	0.4747239	-0.4233496	0.9599724
H	1.3596772	-0.0749880	0.7115702
N	-2.9390848	0.1045101	-0.0477858
C	-2.3863608	1.8619341	1.5225659
H	-1.5221725	1.3508487	1.9295030
H	-2.6143748	2.8346020	1.9402118
C	-3.1703157	1.3468809	0.5402504
C	-4.3666724	2.1138630	0.0189756
H	-5.3091554	1.5969946	0.2391921
H	-4.4104027	3.1011970	0.4831673
H	-4.3164697	2.2485198	-1.0682933
C	-3.5130302	-2.0464838	-0.8266263
C	-3.8044406	-0.5536753	-1.0498795
C	-1.8190223	-0.7401820	0.3606522
C	-2.0204321	-2.0688776	-0.4358619
H	-4.1285464	-2.4278543	-0.0040430
H	-3.7172351	-2.6505751	-1.7149370
H	-4.8555403	-0.3091525	-0.8841654
H	-3.5405393	-0.2473322	-2.0731306
H	-1.8345220	-0.9183331	1.4431500
H	-1.3972991	-2.0611615	-1.3373528
H	-1.7422944	-2.9394556	0.1618826
C	5.0735899	0.8671113	1.0817881
H	5.5639287	-0.1199509	0.9824960
O	3.9284784	1.0366530	0.6482128
C	5.8918186	1.9296683	1.7604282
H	6.8299251	2.0911416	1.2127700
H	5.3327156	2.8661566	1.8149290
H	6.1676117	1.6049794	2.7725194
