31
-0.00491463 (energy)
C	-0.3283614	-0.3522924	0.0726946
O	-0.8839763	0.7051774	-0.2414186
O	1.0365767	-0.4649897	0.1882235
H	1.4878636	0.3827334	-0.0213171
N	-2.3033095	-1.5416662	0.9846095
C	-1.3177332	-0.7199202	3.0372714
H	-0.2975671	-0.7790459	2.6775594
H	-1.4539718	-0.3580861	4.0487141
C	-2.3983859	-1.0707918	2.2930351
C	-3.7983284	-0.9665533	2.8592098
H	-4.2736649	-1.9509572	2.9536910
H	-3.7685071	-0.5129725	3.8519787
H	-4.4462098	-0.3529101	2.2216379
C	-2.7405266	-3.0075201	-0.8106326
C	-3.4267983	-2.0286308	0.1558280
C	-1.0128836	-1.6914729	0.3158606
C	-1.3561763	-2.3690177	-1.0492460
H	-2.6313374	-3.9880113	-0.3334934
H	-3.3007093	-3.1402264	-1.7403132
H	-4.1856498	-2.5183444	0.7693328
H	-3.9100535	-1.2053671	-0.3911951
H	-0.3317378	-2.3139442	0.9094510
H	-1.4250461	-1.6089318	-1.8357358
H	-0.5906658	-3.0911762	-1.3408722
C	3.5460498	1.5311118	2.0910055
H	2.9400641	0.7245893	2.5458524
O	3.8992056	1.4495838	0.9092076
C	3.8823695	2.6785269	3.0017227
H	4.4369220	2.3155530	3.8773758
H	4.4792257	3.4243758	2.4725262
H	2.9618891	3.1428830	3.3797474
