31
-0.00477934 (energy)
C	-0.4710137	0.0693809	0.1027033
O	-0.2070232	-1.1362787	0.0546285
O	0.4747238	1.0430354	-0.1133547
H	1.3596771	0.6537320	-0.2908436
N	-2.9390848	-0.0936391	-0.0666154
C	-2.3863609	0.3876135	-2.3737651
H	-1.5221727	0.9955742	-2.1346207
H	-2.6143749	0.2629716	-3.4249432
C	-3.1703157	-0.2055702	-1.4365583
C	-4.3666723	-1.0404986	-1.8401468
H	-5.3091554	-0.5913514	-1.5026339
H	-4.4104027	-1.1321637	-2.9272991
H	-4.3164695	-2.0494294	-1.4131286
C	-3.5130302	0.3073621	2.1856203
C	-3.8044405	-0.6323851	1.0044367
C	-1.8190224	0.6824247	0.4606904
C	-2.0204321	0.6569710	2.0096316
H	-4.1285465	1.2104253	2.1046051
H	-3.7172350	-0.1598920	3.1529339
H	-4.8555402	-0.6111340	0.7098167
H	-3.5405391	-1.6717181	1.2507613
H	-1.8345222	1.7089710	0.0737249
H	-1.3972991	-0.1276010	2.4536946
H	-1.7422945	1.6099220	2.4647020
C	3.4027781	-1.0534786	-2.0107599
H	2.8285081	-0.2598427	-2.5254820
O	3.5550284	-1.0122707	-0.7847362
C	3.9529554	-2.1330537	-2.9000857
H	4.6174364	-1.6961666	-3.6574770
H	4.5024360	-2.8704459	-2.3111031
H	3.1364772	-2.6280260	-3.4424685
