31
-0.00476962 (energy)
C	-0.4253386	-0.1857202	-0.1476845
O	-0.5805087	0.9496833	0.3131828
O	0.8041463	-0.7968287	-0.2110629
H	1.5151448	-0.2145738	0.1377379
N	-2.7894197	-0.9295365	-0.0807758
C	-1.9709073	-1.9327448	1.9646234
H	-0.9682632	-2.0980767	1.5891267
H	-2.1647220	-2.2483935	2.9821219
C	-2.9630442	-1.3632061	1.2324359
C	-4.3445061	-1.1642990	1.8183175
H	-5.0989122	-1.7655849	1.2955849
H	-4.3519070	-1.4588688	2.8696922
H	-4.6625243	-0.1166711	1.7539261
C	-3.3274481	-0.7291368	-2.3683829
C	-3.8476618	-0.3909889	-0.9618720
C	-1.5068257	-1.0612317	-0.7681440
C	-1.7966558	-0.5928470	-2.2300082
H	-3.5968591	-1.7591136	-2.6282148
H	-3.7341702	-0.0653073	-3.1362560
H	-4.8107167	-0.8614787	-0.7539591
H	-3.9643776	0.6954712	-0.8333619
H	-1.1526428	-2.0994080	-0.7452447
H	-1.5017385	0.4557058	-2.3508419
H	-1.2413422	-1.1879575	-2.9580435
C	2.7362472	2.3867717	-1.0235969
H	2.4105209	2.6535870	-0.0002226
O	3.3934373	1.3576948	-1.2162465
C	2.3240331	3.3471090	-2.1038330
H	2.7223325	4.3482020	-1.8911898
H	2.6861162	3.0069301	-3.0763302
H	1.2301731	3.4400830	-2.1291201
