31
-0.00423975 (energy)
C	-0.3316417	-0.0827948	0.3512683
O	-0.8660145	0.4308734	-0.6312002
O	1.0233420	-0.3618506	0.3960764
H	1.4519015	-0.1096168	-0.4509085
N	-2.3098244	0.0678184	1.8703941
C	-3.7737162	1.9872300	1.9910268
H	-4.6641655	1.4237931	1.7426810
H	-3.9067909	3.0435449	2.1865168
C	-2.5380024	1.4386648	2.0384871
C	-1.3182174	2.2859499	2.3314572
H	-0.6304625	2.3229667	1.4779849
H	-1.6233385	3.3115866	2.5492110
H	-0.7584016	1.9081645	3.1966074
C	-2.7162778	-2.2338157	2.1368391
C	-3.4068194	-0.9046348	1.7913301
C	-1.0029923	-0.5420959	1.6367723
C	-1.3050489	-2.0768778	1.5328731
H	-2.6563712	-2.3487137	3.2251834
H	-3.2439607	-3.1028960	1.7325079
H	-4.1877678	-0.6364694	2.5107532
H	-3.8642994	-0.9284385	0.7893512
H	-0.3046782	-0.3430574	2.4584317
H	-1.3127486	-2.3836614	0.4806128
H	-0.5415801	-2.6664100	2.0454281
C	3.6998594	-2.6711707	-1.3910549
H	3.9416111	-3.0402597	-0.3762089
O	3.6157261	-1.4566175	-1.6050506
C	3.4936705	-3.7344521	-2.4331667
H	2.6771262	-4.4044722	-2.1325418
H	3.2606794	-3.2824642	-3.3996029
H	4.3954149	-4.3545458	-2.5234665
