31
-0.00403418 (energy)
C	-0.4317821	-0.2290271	0.0366256
O	-0.5979043	0.9856178	-0.0715170
O	0.8261608	-0.8063634	0.0477250
H	1.5185609	-0.1179107	-0.0584988
N	-2.8102374	-0.8040475	0.5425269
C	-4.2271046	0.4910897	2.0111247
H	-4.9789139	0.6752238	1.2542139
H	-4.4190155	0.8995743	2.9950134
C	-3.0821458	-0.1878322	1.7696719
C	-2.0361245	-0.3639060	2.8496888
H	-1.0979416	0.1454445	2.5983585
H	-2.3973208	0.0620812	3.7880482
H	-1.8059685	-1.4226723	3.0247388
C	-3.2833082	-2.0513062	-1.3950661
C	-3.8140340	-0.9010042	-0.5243874
C	-1.5023136	-1.3059650	0.1280409
C	-1.7506183	-1.8993345	-1.3015906
H	-3.5992501	-3.0121915	-0.9729714
H	-3.6408785	-2.0005039	-2.4279243
H	-4.7939427	-1.1210709	-0.0876811
H	-3.9012276	0.0380067	-1.0940118
H	-1.1271370	-2.0819496	0.8058856
H	-1.3979594	-1.1941186	-2.0629904
H	-1.2084964	-2.8373547	-1.4407576
C	4.6076203	-2.0529361	0.6239878
H	4.7525079	-1.6182962	1.6313004
O	3.9895625	-1.4214136	-0.2404173
C	5.2042633	-3.4168271	0.4168734
H	4.7791758	-4.1282887	1.1374079
H	5.0144761	-3.7667080	-0.6000538
H	6.2863745	-3.3875416	0.6012396
