31
-0.00399224 (energy)
C	0.4700281	-0.0552303	-0.1274905
O	-0.1136281	-1.1382653	-0.1596479
O	-0.1686587	1.1199379	0.2287672
H	-1.1164489	0.9484855	0.4210337
N	2.7747209	-0.9563732	-0.4738524
C	3.6111379	-2.9617623	0.5846815
H	3.8412887	-3.4554177	-0.3509314
H	3.8469746	-3.5050760	1.4907265
C	3.0343828	-1.7401433	0.6565548
C	2.6782100	-1.1220872	1.9917501
H	1.5952038	-0.9943438	2.1082462
H	3.0193509	-1.7694561	2.8022947
H	3.1475441	-0.1387116	2.1232731
C	3.2086957	0.0049776	-2.5765144
C	3.2547469	-1.3271287	-1.8108003
C	1.9189826	0.2275468	-0.4945843
C	1.9800314	0.7234055	-1.9805136
H	4.1212763	0.5786235	-2.3779927
H	3.1223760	-0.1313251	-3.6587361
H	4.2682598	-1.7354034	-1.7368671
H	2.6157477	-2.0922064	-2.2800042
H	2.2814035	1.0075522	0.1855817
H	1.0725970	0.4153804	-2.5125950
H	2.0421827	1.8127161	-2.0323332
C	-1.6454972	-1.7297823	-4.1956176
H	-1.7456517	-2.4173274	-3.3343199
O	-0.7885797	-0.8389993	-4.1811192
C	-2.6031269	-1.9700391	-5.3288872
H	-3.6385198	-1.8884668	-4.9720195
H	-2.4337466	-1.2494655	-6.1317948
H	-2.4810262	-2.9901408	-5.7165689
