31
-0.00389585 (energy)
C	0.0282614	0.0827949	0.4822623
O	1.0691333	-0.4308734	0.0731360
O	-1.0385185	0.3618506	-0.3543793
H	-0.8223828	0.1096168	-1.2786802
N	0.5671622	-0.0678183	2.9175314
C	1.6110272	-1.9872299	3.9509130
H	2.4527845	-1.4237930	4.3330388
H	1.5873097	-3.0435448	4.1862059
C	0.6339085	-1.4386647	3.1929682
C	-0.4888186	-2.2859498	2.6333337
H	-0.4670681	-2.3229666	1.5374557
H	-0.3950517	-3.3115864	2.9962709
H	-1.4737702	-1.9081643	2.9362347
C	0.7072562	2.2338158	3.3829033
C	1.4583306	0.9046349	3.5620996
C	-0.2837601	0.5420960	1.8985514
C	0.0144138	2.0768779	2.0131181
H	-0.0382092	2.3487139	4.1781163
H	1.3713838	3.1028961	3.4123555
H	1.5941355	0.6364695	4.6151937
H	2.4528401	0.9284386	3.0886017
H	-1.3468522	0.3430576	2.0791114
H	0.6966920	2.3836614	1.2119891
H	-0.8999012	2.6664102	1.9150098
C	5.1811082	-2.4756313	-0.0752623
H	4.6367879	-3.4371262	-0.1371151
O	6.4163420	-2.4646058	-0.0295671
C	4.3184098	-1.2450456	-0.0531667
H	3.6317807	-1.2806203	0.8031754
H	4.9358270	-0.3463942	0.0084648
H	3.6959879	-1.2039978	-0.9568920
