31
-0.0036885 (energy)
C	-0.4798432	0.0969247	-0.0242225
O	-0.2576779	-0.7606548	0.8300922
O	0.5293323	0.6687794	-0.7794759
H	1.4020594	0.3040621	-0.5149058
N	-2.9716943	-0.0814866	0.0255953
C	-4.1706417	-2.1753687	0.1665049
H	-4.6931317	-1.9067405	1.0758341
H	-4.3982414	-3.1460171	-0.2551187
C	-3.2545369	-1.3757841	-0.4264382
C	-2.5084451	-1.8270475	-1.6638983
H	-1.4329928	-1.9342435	-1.4776096
H	-2.8821509	-2.8008584	-1.9871358
H	-2.6357092	-1.1223003	-2.4956047
C	-3.4543231	2.0617939	0.8665083
C	-3.7612197	0.5704351	1.0777179
C	-1.8204337	0.7177380	-0.3869864
C	-1.9850373	2.0663334	0.3951805
H	-4.1080063	2.4680821	0.0861802
H	-3.5986525	2.6565172	1.7735401
H	-4.8218972	0.3352442	0.9398366
H	-3.4676100	0.2297069	2.0834583
H	-1.8136467	0.8995018	-1.4683277
H	-1.3145556	2.0772278	1.2622231
H	-1.7296503	2.9224490	-0.2333010
C	3.3472091	2.3639061	-1.5132819
H	3.7368333	3.1191939	-0.8045391
O	3.8423888	1.2317860	-1.5466475
C	2.2145915	2.8226961	-2.3883631
H	2.5256443	3.6912551	-2.9840966
H	1.8945141	2.0173912	-3.0529014
H	1.3680550	3.1493909	-1.7699298
