31
-0.00343896 (energy)
C	0.1383864	-0.2361038	0.4066139
O	-0.9796426	0.2563183	0.5555609
O	0.8546832	-0.1046495	-0.7704585
H	0.3354526	0.4041542	-1.4309029
N	0.4648965	-0.9402934	2.7817228
C	-0.1625783	0.4091322	4.6861908
H	-0.8228767	-0.3416050	5.1014452
H	-0.0598163	1.3288963	5.2476179
C	0.4963805	0.2515494	3.5152484
C	1.3599925	1.3589341	2.9500297
H	0.9647413	1.7433826	2.0019960
H	1.3960123	2.1951029	3.6514357
H	2.3891425	1.0217989	2.7717303
C	0.4924178	-3.2690775	2.4504767
C	-0.1520725	-2.1655076	3.3047083
C	0.9159902	-1.0863925	1.3998566
C	0.6749825	-2.6003165	1.0719266
H	1.4649050	-3.5454200	2.8737820
H	-0.1215847	-4.1728998	2.3926873
H	0.0804920	-2.2678585	4.3699786
H	-1.2485516	-2.1520319	3.1980870
H	1.9767252	-0.8330303	1.2856990
H	-0.2401516	-2.7109323	0.4788658
H	1.5006025	-3.0158097	0.4898077
C	1.0325035	3.5077581	-2.3109191
H	1.5930225	4.3813246	-1.9271446
O	1.6405719	2.5129759	-2.7216179
C	-0.4645642	3.6391913	-2.2865948
H	-0.7770700	4.5075694	-2.8818313
H	-0.9341107	2.7355899	-2.6810657
H	-0.8113234	3.8173385	-1.2600302
