31
-0.00517297 (energy)
C	-0.4798432	-0.0586787	0.0808575
O	-0.2576780	0.0491223	-1.1248270
O	0.5293324	-0.0112773	1.0269962
H	1.4020595	0.0980499	0.5898879
N	-2.9716943	0.0459701	-0.0719854
C	-4.1706418	1.5594019	-1.5258499
H	-4.6931319	0.7691152	-2.0497655
H	-4.3982415	2.5739762	-1.8267882
C	-3.2545369	1.3280211	-0.5576661
C	-2.5084450	2.4691329	0.1002167
H	-1.4329927	2.4315057	-0.1113931
H	-2.8821508	3.4228884	-0.2781226
H	-2.6357090	2.4638758	1.1903436
C	-3.4543231	-2.1364065	0.6615121
C	-3.7612198	-1.1297223	-0.4589107
C	-1.8204336	-0.3010690	0.7578021
C	-1.9850372	-1.8369202	1.0254879
H	-4.1080063	-1.9460559	1.5204352
H	-3.5986526	-3.1750197	0.3489663
H	-4.8218973	-0.8609271	-0.5044652
H	-3.4676102	-1.5151868	-1.4483685
H	-1.8136465	0.2547646	1.7029930
H	-1.3145556	-2.4025902	0.3682975
H	-1.7296502	-2.0887627	2.0572332
C	4.2635522	-1.3874197	1.6026841
H	3.5708426	-2.2192198	1.3728039
O	4.1369287	-0.2992561	1.0300773
C	5.3208749	-1.6913986	2.6267660
H	5.9358200	-2.5384749	2.2945746
H	5.9563093	-0.8185467	2.7908680
H	4.8537341	-1.9912730	3.5742195
