31
-0.00320842 (energy)
C	2.1505149	-2.3264946	-3.0711581
O	2.5788432	-2.7603355	-2.0020601
O	2.1302523	-3.0901006	-4.2254354
H	2.5124841	-3.9784018	-4.0537132
N	1.2132515	-0.1946315	-2.1654369
C	0.0117256	-0.0312096	-0.0746711
H	0.6912614	0.6962433	0.3508637
H	-0.8308757	-0.3246356	0.5382323
C	0.1887230	-0.5862320	-1.2956491
C	-0.7594925	-1.6447841	-1.8171410
H	-0.2600949	-2.6119348	-1.9513561
H	-1.5746479	-1.7944891	-1.1061163
H	-1.1991534	-1.3582109	-2.7810780
C	2.6418073	1.3092584	-3.2750586
C	2.0764401	0.9602432	-1.8888788
C	1.6252031	-0.9283009	-3.3597608
C	2.7847481	-0.0637897	-3.9644629
H	1.9280006	1.9383909	-3.8190768
H	3.5941901	1.8452771	-3.2213521
H	1.4780750	1.7719329	-1.4617000
H	2.8746815	0.7147284	-1.1703044
H	0.8059359	-1.0303086	-4.0814108
H	3.7528142	-0.5105693	-3.7101730
H	2.7165621	-0.0158961	-5.0535921
C	4.3679312	-1.0688647	1.7249805
H	3.5458129	-1.8093094	1.7460967
O	4.1922028	0.0375330	1.2024713
C	5.6550642	-1.5142315	2.3606023
H	6.0270703	-2.4208283	1.8648800
H	6.4070228	-0.7250497	2.2948229
H	5.4855223	-1.7757093	3.4135498
