31
-0.00299441 (energy)
C	1.2540485	0.0671885	2.1602041
O	1.7936790	1.1583001	1.9787435
O	1.3193958	-0.5989648	3.3717446
H	1.8559256	-0.0858619	4.0148074
N	0.0000000	0.0000000	0.0000000
C	-1.1262916	1.9085207	-0.9647221
H	-0.5659959	1.8719418	-1.8903393
H	-1.8801079	2.6811735	-0.8841307
C	-0.9055312	1.0652134	0.0698130
C	-1.6769333	1.1998741	1.3653455
H	-1.0238280	1.4656567	2.2053485
H	-2.4246008	1.9901219	1.2707529
H	-2.1980353	0.2701414	1.6273577
C	1.1013565	-1.8323306	-0.9814762
C	0.6611982	-0.3847589	-1.2530331
C	0.4839207	-0.7654695	1.1464126
C	1.4513491	-1.8289350	0.5213428
H	0.2682422	-2.5165616	-1.1790420
H	1.9482255	-2.1409662	-1.6017909
H	-0.0506268	-0.3096333	-2.0819022
H	1.5181975	0.2681233	-1.4834959
H	-0.3338715	-1.2597012	1.6843103
H	2.4914984	-1.5131361	0.6620121
H	1.3320020	-2.8031506	1.0007233
C	1.6672094	4.5531266	0.6410150
H	1.1345607	3.5916317	0.7690608
O	2.8435781	4.5641522	0.2614796
C	0.8640949	5.7837122	0.9568382
H	0.5117608	5.7481374	1.9963775
H	1.4653565	6.6823637	0.8035839
H	-0.0298825	5.8247600	0.3204950
