31
-0.00298739 (energy)
C	1.4122752	-1.9370536	2.0024169
O	0.6481990	-1.5682000	2.8939258
O	1.6853679	-3.2734208	1.7670365
H	1.2048577	-3.8384726	2.4108493
N	1.7015680	0.2982842	0.9238953
C	-0.1002575	1.8718640	0.5790129
H	0.3765561	2.6635057	1.1429178
H	-1.0595711	2.1031400	0.1340912
C	0.4330638	0.6365982	0.4381166
C	-0.3057275	-0.4522103	-0.3104036
H	-0.5827634	-1.2855299	0.3465757
H	-1.2284369	-0.0499586	-0.7337793
H	0.2950286	-0.8599863	-1.1334536
C	3.9885103	0.6079135	1.3796822
C	2.6194841	1.2996627	1.4806590
C	2.2151271	-1.0635830	1.0502259
C	3.6618512	-0.8799936	1.6254415
H	4.4016856	0.7482126	0.3742539
H	4.7134371	0.9960232	2.1015447
H	2.5665905	2.2174005	0.8854092
H	2.3657456	1.5569712	2.5214401
H	2.2490271	-1.5804551	0.0837493
H	3.6634281	-1.0901232	2.7012065
H	4.3666452	-1.5668894	1.1515373
C	2.1605622	-4.2934308	-2.7099082
H	3.1180107	-4.4985602	-3.2254635
O	1.9644271	-3.1931717	-2.1817293
C	1.1700867	-5.4239300	-2.7127138
H	1.6079358	-6.3107203	-2.2352853
H	0.2587913	-5.1350751	-2.1848120
H	0.9245725	-5.7082613	-3.7445528
