31
-0.00287322 (energy)
C	-0.4569479	2.7169612	1.4716289
O	0.5044267	2.4797023	2.2024645
O	-0.6328956	3.9431253	0.8540330
H	0.0916523	4.5577151	1.1029876
N	-1.3369092	0.3800789	1.3806171
C	0.0613359	-1.5792578	1.1624823
H	-0.2980913	-2.0355106	2.0760917
H	0.7927465	-2.1403864	0.5951203
C	-0.3406067	-0.3606734	0.7339274
C	0.2404266	0.2568729	-0.5201204
H	0.8093842	1.1687516	-0.3020460
H	0.9243650	-0.4480219	-0.9974020
H	-0.5409219	0.5152060	-1.2463152
C	-3.3756646	0.7352889	2.4991068
C	-2.1376668	-0.1756888	2.4784441
C	-1.6195868	1.7932691	1.1410940
C	-2.8156679	2.1170246	2.1013862
H	-4.1034728	0.3888941	1.7564159
H	-3.8702710	0.7556995	3.4749046
H	-2.3866277	-1.2194452	2.2594608
H	-1.5948294	-0.1517960	3.4368662
H	-1.9015995	1.9842214	0.0987941
H	-2.4468250	2.6407890	2.9907979
H	-3.5499159	2.7635129	1.6155074
C	4.8062389	2.4216520	1.6275908
H	5.1400645	1.9844136	2.5877814
O	5.0707001	3.5985262	1.3573325
C	4.0385697	1.4943956	0.7276145
H	3.1407027	1.1265106	1.2419514
H	3.7504219	2.0066276	-0.1928017
H	4.6478390	0.6137120	0.4847139
