31
-0.0026363 (energy)
C	0.0282614	-0.4605585	0.1652810
O	1.0691333	-0.1468453	-0.4116275
O	-1.0385185	0.4118302	0.2948160
H	-0.8223828	1.2782889	-0.1140890
N	0.5671622	-2.8849841	0.4398361
C	1.6110272	-4.2359686	-1.2709705
H	2.4527845	-4.5144493	-0.6497380
H	1.5873097	-4.6511141	-2.2703794
C	0.6339085	-3.3942814	-0.8623549
C	-0.4888186	-2.9902785	-1.7939474
H	-0.4670681	-1.9174772	-2.0206991
H	-0.3950517	-3.5258019	-2.7409789
H	-1.4737702	-3.2229759	-1.3693032
C	0.7072562	-2.9436113	2.7873142
C	1.4583306	-3.3508951	1.5094437
C	-0.2837601	-1.7755741	0.8635403
C	0.0144138	-1.6218882	2.3948998
H	-0.0382092	-3.7067913	3.0385540
H	1.3713838	-2.8217019	3.6483055
H	1.5941355	-4.4345567	1.4282202
H	2.4528401	-2.8804572	1.4506636
H	-1.3468522	-1.9879537	0.6988797
H	0.6966920	-0.7796578	2.5579079
H	-0.8999012	-1.4228992	2.9584394
C	3.7382035	3.9597703	0.2058651
H	3.7746234	4.3486271	-0.8295319
O	3.8887944	4.7284054	1.1621782
C	3.5000002	2.4811748	0.3327217
H	4.2890665	1.9253024	-0.1911362
H	3.4791596	2.1861214	1.3839524
H	2.5497904	2.2093795	-0.1458616
