31
-0.00249435 (energy)
C	-2.2777838	-0.5355807	1.3397275
O	-2.4513671	0.2810857	2.2439280
O	-2.8340215	-1.8026956	1.3693951
H	-3.3446443	-1.9319105	2.1983923
N	-1.1500321	1.0269254	-0.2509908
C	-1.8511460	3.3098406	-0.6230264
H	-0.8941157	3.7331141	-0.3455932
H	-2.6183013	4.0073473	-0.9339660
C	-2.1192356	1.9848448	-0.5712648
C	-3.4946829	1.4525164	-0.9123954
H	-3.9813424	0.9893311	-0.0455540
H	-4.1356483	2.2704878	-1.2478536
H	-3.4541081	0.7035159	-1.7136147
C	0.9722755	0.0128215	-0.2844686
C	0.2702931	1.3685474	-0.1050967
C	-1.4285791	-0.3663531	0.0889665
C	-0.0144352	-0.9924555	0.3454454
H	1.1044499	-0.1980431	-1.3518719
H	1.9565000	-0.0208915	0.1923951
H	0.5541708	2.0946439	-0.8742260
H	0.4871371	1.8157728	0.8781552
H	-1.9395571	-0.8930814	-0.7257984
H	0.1678926	-1.0693707	1.4235308
H	0.0560795	-1.9976507	-0.0761655
C	5.5416367	1.0671548	-0.0185187
H	5.6921102	0.6267501	0.9854655
O	4.4700701	0.9036938	-0.6126884
C	6.7064784	1.8446143	-0.5642097
H	7.5942399	1.2010991	-0.6259714
H	6.4711857	2.2414608	-1.5540212
H	6.9601909	2.6703100	0.1137800
