31
-0.005079 (energy)
C	-0.4798432	0.0406853	0.0912460
O	-0.2576779	-0.9495676	-0.6049547
O	0.5293323	0.8837662	0.5232646
H	1.4020594	0.5598830	0.2100303
N	-2.9716943	-0.0393565	-0.0758041
C	-4.1706417	-0.5417242	-2.1134067
H	-4.6931317	-1.3905918	-1.6909561
H	-4.3982414	-0.2950573	-3.1425229
C	-3.2545369	0.1810573	-1.4289331
C	-2.5084451	1.3213564	-2.0882235
H	-1.4329928	1.1192835	-2.1614423
H	-2.8821509	1.4705827	-3.1033696
H	-2.6357092	2.2628054	-1.5386073
C	-3.4543231	-0.4953173	2.1809382
C	-3.7612197	-0.9622899	0.7489127
C	-1.8204337	0.5057411	0.6396344
C	-1.9850373	-0.0303617	2.1035635
H	-4.1080063	0.3437071	2.4455514
H	-3.5986525	-1.2852966	2.9241308
H	-4.8218972	-0.8673438	0.4933520
H	-3.4676100	-2.0119177	0.5880059
H	-1.8136467	1.6022173	0.6308639
H	-1.3145556	-0.8823402	2.2648528
H	-1.7296503	0.7372346	2.8375381
C	4.7529174	1.5798972	-0.9948610
H	5.1301327	1.8041643	0.0210109
O	3.8360456	0.7654087	-1.1496731
C	5.4279857	2.3230245	-2.1133970
H	6.5044201	2.1054683	-2.1156344
H	4.9946328	2.0417397	-3.0755097
H	5.3238852	3.4059355	-1.9641316
