31
-0.0024491 (energy)
C	1.2540485	1.4400220	1.6116243
O	1.7936790	2.1592213	0.7712643
O	1.3193958	1.7084823	2.9679132
H	1.8559256	2.5148947	3.1307116
N	0.0000000	0.0000000	0.0000000
C	-1.1262916	0.8419000	-1.9657935
H	-0.5659959	0.2189036	-2.6513449
H	-1.8801079	1.4855895	-2.4007087
C	-0.9055312	0.8608757	-0.6312262
C	-1.6769333	1.7967840	0.2746510
H	-1.0238280	2.5403289	0.7472888
H	-2.4246008	2.3413460	-0.3057727
H	-2.1980353	1.2529858	1.0729846
C	1.1013565	-2.0345274	0.4259452
C	0.6611982	-1.1001767	-0.7125607
C	0.4839207	0.1505163	1.3702373
C	1.4513491	-1.0659327	1.5749886
H	0.2682422	-2.6856716	0.7144163
H	1.9482255	-2.6696865	0.1491438
H	-0.0506268	-1.5754139	-1.3958010
H	1.5181975	-0.7481786	-1.3087701
H	-0.3338715	0.1176669	2.0999768
H	2.4914984	-0.7335962	1.4797559
H	1.3320020	-1.5040852	2.5684292
C	4.6575586	-4.3986339	2.4030258
H	5.5436727	-3.9654332	2.9047446
O	4.1477498	-3.8200150	1.4369476
C	4.1574010	-5.6935279	2.9793678
H	3.8935499	-5.5591763	4.0369022
H	3.2851227	-6.0468880	2.4254329
H	4.9494743	-6.4532741	2.9444538
