31
-0.00228977 (energy)
C	1.3173252	-1.4280284	1.8696001
O	2.4081469	-1.8027559	1.4402507
O	0.6579542	-2.0872787	2.8925761
H	1.1753207	-2.8698188	3.1834908
N	1.2365279	0.7308271	0.6140330
C	3.1381752	2.1944768	0.3256931
H	3.0972474	2.1658492	-0.7557606
H	3.9102422	2.8125116	0.7657747
C	2.3008865	1.4871521	1.1186651
C	2.4416500	1.5164157	2.6256250
H	2.7129440	0.5341164	3.0309393
H	3.2303536	2.2159167	2.9103899
H	1.5126741	1.8357918	3.1151177
C	-0.5997001	0.2527678	-0.7764500
C	0.8457558	0.7752900	-0.8004049
C	0.4780483	-0.2602238	1.3735798
C	-0.5875419	-0.7953922	0.3558857
H	-1.2861349	1.0717339	-0.5327586
H	-0.9106090	-0.1770648	-1.7334312
H	0.9153467	1.8044238	-1.1683770
H	1.4985135	0.1473815	-1.4276646
H	-0.0143125	0.1820192	2.2478710
H	-0.2695675	-1.7674991	-0.0382308
H	-1.5592585	-0.9328640	0.8354833
C	-2.7412367	-4.9130551	0.1557994
H	-2.2356761	-5.8651978	-0.0940320
O	-2.1542107	-3.8377985	-0.0092328
C	-4.1404631	-5.0448814	0.6885897
H	-4.1412364	-5.6573070	1.6001713
H	-4.5606133	-4.0608568	0.9070987
H	-4.7754025	-5.5633907	-0.0420357
