31
-0.0020319 (energy)
C	-0.1926261	-2.4923092	-1.0105967
O	0.9189723	-2.9239903	-1.3149879
O	-1.3552898	-2.9611300	-1.5973511
H	-1.1459605	-3.6439892	-2.2715567
N	0.5525426	-1.1190733	0.9394241
C	2.1946302	-1.8511726	2.5547419
H	2.8584227	-1.0143799	2.3781235
H	2.5031889	-2.5645880	3.3081053
C	1.0435173	-2.0421992	1.8701887
C	0.1826932	-3.2630844	2.1151788
H	0.1299855	-3.9111658	1.2320001
H	0.6038319	-3.8557127	2.9299671
H	-0.8435835	-2.9888394	2.3911249
C	0.0396955	1.0092751	0.0787047
C	1.1623769	0.2030762	0.7514423
C	-0.5167139	-1.3840401	-0.0201945
C	-0.6788421	-0.0346739	-0.8015485
H	-0.6427859	1.4021732	0.8410262
H	0.4166611	1.8534005	-0.5066009
H	1.4522145	0.6153313	1.7237604
H	2.0656130	0.1540397	0.1224937
H	-1.4558676	-1.6551410	0.4766733
H	-0.1819264	-0.1074393	-1.7758212
H	-1.7314996	0.1947611	-0.9815966
C	3.7577974	2.7041971	-1.9325430
H	3.7213774	1.9846646	-2.7725009
O	3.6072065	2.3089950	-0.7710139
C	3.9960006	4.1370099	-2.3190464
H	3.2069344	4.4801890	-3.0014315
H	4.0168413	4.7738116	-1.4321270
H	4.9462104	4.2287288	-2.8617271
