31
-0.00195144 (energy)
C	1.8773217	0.8951276	-1.7159328
O	2.7555126	1.5128484	-1.1143888
O	1.6075940	1.1087102	-3.0566379
H	2.1932582	1.8110796	-3.4148882
N	1.3719678	-0.7394529	0.1051652
C	3.0603137	-1.7997125	1.4715512
H	2.6519752	-1.4300266	2.4035536
H	3.9363361	-2.4316002	1.5424673
C	2.5447321	-1.4878453	0.2603206
C	3.1924171	-1.9832055	-1.0151093
H	3.5859757	-1.1586762	-1.6217847
H	4.0309514	-2.6397823	-0.7738350
H	2.4868816	-2.5493104	-1.6366762
C	-0.8290953	-0.0581294	0.5793344
C	0.5209959	-0.3723544	1.2437608
C	0.9190104	-0.1410087	-1.1482615
C	-0.4303887	0.5643153	-0.7751275
H	-1.3907857	-0.9863243	0.4236365
H	-1.4485610	0.6169796	1.1774344
H	0.4605361	-1.2130193	1.9430389
H	0.9198520	0.4956421	1.7926799
H	0.7553678	-0.8951683	-1.9272657
H	-0.2663863	1.6416596	-0.6573991
H	-1.1794716	0.4256876	-1.5579446
C	3.3052088	6.3314521	-2.3546365
H	4.1378312	6.9061364	-1.9062385
O	2.5455425	6.8720107	-3.1662496
C	3.1913131	4.9017083	-1.9052607
H	3.0613147	4.8576048	-0.8156727
H	2.3468824	4.4129261	-2.3957762
H	4.1172566	4.3584475	-2.1361497
