31
-0.00642057 (energy)
C	-0.4798432	-0.0827949	0.0559119
O	-0.2576779	0.4308733	-1.0401908
O	0.5293323	-0.3618506	0.9612038
H	1.4020594	-0.1096168	0.5878485
N	-2.9716943	0.0678183	-0.0519218
C	-4.1706417	1.9872299	-0.9004835
H	-4.6931317	1.4237929	-1.6630971
H	-4.3982414	3.0435448	-0.8362682
C	-3.2545369	1.4386646	-0.0698251
C	-2.5084451	2.2859498	0.9386658
H	-1.4329928	2.3229667	0.7269485
H	-2.8821509	3.3115865	0.9093467
H	-2.6357092	1.9081644	1.9612520
C	-3.4543231	-2.2338158	-0.1090763
C	-3.7612197	-0.9046350	-0.8176232
C	-1.8204337	-0.5420959	0.6091292
C	-1.9850373	-2.0768779	0.3353795
H	-4.1080063	-2.3487138	0.7631510
H	-3.5986525	-3.1028961	-0.7580000
H	-4.8218972	-0.6364696	-0.7684972
H	-3.4676100	-0.9284387	-1.8792460
H	-1.8136467	-0.3430575	1.6874244
H	-1.3145556	-2.3836614	-0.4756479
H	-1.7296503	-2.6664101	1.2187678
C	4.8608492	0.4047897	-0.7894255
H	4.6507564	1.4912199	-0.7787804
O	3.9939591	-0.3976493	-0.4252754
C	6.2327184	0.0166384	-1.2652316
H	6.9983842	0.4852469	-0.6326110
H	6.3521582	-1.0686366	-1.2431171
H	6.3964680	0.3852790	-2.2865560
