31
-0.00110677 (energy)
C	2.1505149	3.7563006	0.8572020
O	2.5788432	3.4014391	-0.2406422
O	2.1302523	5.0832119	1.2505933
H	2.5124841	5.6533092	0.5480575
N	1.2132515	1.5410123	1.5337143
C	0.0117256	0.0719056	0.0371402
H	0.6912614	-0.7588841	0.1787593
H	-0.8308757	-0.0972837	-0.6209816
C	0.1887230	1.2819069	0.6157022
C	-0.7594925	2.4280134	0.3347641
H	-0.2600949	3.2551657	-0.1840936
H	-1.5746479	2.0856562	-0.3061410
H	-1.1991534	2.8280923	1.2573884
C	2.6418073	1.1022168	3.3504156
C	2.0764401	0.4785588	2.0641976
C	1.6252031	2.8707322	1.9770260
C	2.7847481	2.5971732	2.9959517
H	1.9280006	0.9699614	4.1715563
H	3.5941901	0.6570807	3.6538202
H	1.4780750	-0.4178168	2.2587037
H	2.8746815	0.2047433	1.3559237
H	0.8059359	3.4127423	2.4642727
H	3.7528142	2.7759719	2.5139700
H	2.7165621	3.2605632	3.8610585
C	6.9980667	-0.6923354	-0.8671315
H	7.1991301	-0.0955543	-1.7770813
O	7.9372237	-1.1331280	-0.1950465
C	5.5461961	-0.9055465	-0.5420302
H	5.0430747	-1.4128563	-1.3760281
H	5.4415231	-1.5015585	0.3670298
H	5.0430082	0.0614229	-0.4094198
