31
-0.000815016 (energy)
C	-1.4971762	-0.7341093	-2.6411964
O	-2.4954685	-1.0365665	-1.9880610
O	-1.5649073	0.0617072	-3.7716606
H	-2.4964631	0.3107117	-3.9583935
N	0.1872714	-1.6502330	-1.0390142
C	0.0331145	-1.4124541	1.3612712
H	0.0470996	-2.4787731	1.5478320
H	-0.0159626	-0.7685511	2.2300098
C	0.0485529	-0.8764537	0.1192445
C	-0.0342019	0.6210750	-0.0860813
H	-0.9541957	0.9130080	-0.6068293
H	-0.0318683	1.1281672	0.8810269
H	0.8151899	0.9995756	-0.6690661
C	1.0515359	-3.3692263	-2.3924636
C	0.4897429	-3.0859960	-0.9899248
C	-0.0621391	-1.1767340	-2.3984176
C	0.2474927	-2.4184876	-3.3038263
H	2.1178951	-3.1177248	-2.4226094
H	0.9415067	-4.4166293	-2.6892364
H	1.2195412	-3.2805721	-0.1968944
H	-0.4078973	-3.6887009	-0.7782526
H	0.5882308	-0.3352465	-2.6654398
H	-0.6894139	-2.8979491	-3.6100125
H	0.7820945	-2.1245833	-4.2098984
C	4.1595663	-4.2245991	1.4314742
H	4.0396408	-4.6079989	0.4003557
O	4.1536978	-5.0072462	2.3882611
C	4.3222356	-2.7352893	1.5521926
H	3.4521152	-2.2240940	1.1190451
H	4.4338362	-2.4465604	2.5994546
H	5.2004825	-2.4039719	0.9823465
