31
-0.000786524 (energy)
C	-2.4978159	0.0284536	0.0611549
O	-2.6104817	0.0907118	1.2851173
O	-3.5797144	0.1709789	-0.7903397
H	-4.4048880	0.3035873	-0.2744209
N	0.0000000	0.0000000	0.0000000
C	1.3986197	1.3812422	1.4063093
H	1.9200798	0.5419269	1.8486505
H	1.7057336	2.3678279	1.7288863
C	0.3923058	1.2419850	0.5129421
C	-0.3439573	2.4488489	-0.0283484
H	-1.3979739	2.4556432	0.2746282
H	0.1117960	3.3637637	0.3559248
H	-0.3103156	2.4882637	-1.1246673
C	0.2993052	-2.1671743	-0.8645744
C	0.7545594	-1.2308573	0.2663545
C	-1.2347828	-0.2492641	-0.7399753
C	-1.1771707	-1.7772314	-1.0857872
H	0.8869593	-1.9700026	-1.7684935
H	0.4130789	-3.2252480	-0.6100769
H	1.8282936	-1.0183365	0.2304032
H	0.5256465	-1.6469590	1.2604744
H	-1.2917197	0.3498807	-1.6565814
H	-1.8190684	-2.3385323	-0.3970668
H	-1.5326528	-1.9672510	-2.1010066
C	3.7893562	0.3684451	-4.2757837
H	4.0311080	1.4318720	-4.4635661
O	3.7052230	-0.4241571	-5.2206199
C	3.5831673	-0.0024097	-2.8338992
H	2.7666230	0.5929491	-2.4039571
H	3.3501761	-1.0653619	-2.7421143
H	4.4849117	0.2294351	-2.2517323
