31
-0.00608617 (energy)
C	-0.4317821	-0.0758393	-0.2191877
O	-0.5979043	0.2415813	0.9582252
O	0.8261608	-0.1870235	-0.7858255
H	1.5185609	0.0371351	-0.1262775
N	-2.8102374	-0.6739061	-0.6976234
C	-4.2271046	-1.8952944	0.8328572
H	-4.9789139	-1.1179082	0.8827577
H	-4.4190155	-2.7933030	1.4059864
C	-3.0821458	-1.7754033	0.1223218
C	-2.0361245	-2.8695872	0.1364659
H	-1.0979416	-2.5336274	0.5944352
H	-2.3973208	-3.7197189	0.7189258
H	-1.8059685	-3.2258307	-0.8758182
C	-3.2833082	1.0176663	-2.2623930
C	-3.8140340	0.3599630	-0.9783748
C	-1.5023136	-0.3528741	-1.2638904
C	-1.7506183	0.9520005	-2.0964982
H	-3.5992501	0.4351281	-3.1353843
H	-3.6408785	2.0436547	-2.3917164
H	-4.7939427	-0.1083230	-1.1192650
H	-3.9012276	1.0839911	-0.1525439
H	-1.1271370	-1.1551692	-1.9103796
H	-1.3979594	1.8242924	-1.5342118
H	-1.2084964	0.9261677	-3.0444339
C	4.3543483	-1.0233075	1.5934219
H	3.5322300	-1.7118758	1.8665117
O	4.1786200	-0.1623425	0.7240135
C	5.6414813	-1.2244200	2.3430354
H	6.0134874	-2.2458893	2.1872831
H	6.3934400	-0.5053295	2.0113069
H	5.4719395	-1.1099995	3.4219130
