31
-0.0060627 (energy)
C	-0.4798432	-0.0694396	-0.0718280
O	-0.2576779	1.0992084	0.2437001
O	0.5293323	-1.0094356	-0.1894420
H	1.4020594	-0.5979525	-0.0058726
N	-2.9716943	0.0629095	0.0577718
C	-4.1706417	1.2318820	1.8006720
H	-4.6931317	1.8850700	1.1133685
H	-4.3982414	1.3520695	2.8520900
C	-3.2545369	0.3185858	1.4046831
C	-2.5084451	-0.5274543	2.4142187
H	-1.4329928	-0.3125255	2.4139089
H	-2.8821509	-0.3204806	3.4191824
H	-2.6357092	-1.6001068	2.2197430
C	-3.4543231	-0.2804789	-2.2188201
C	-3.7612197	0.6481134	-1.0328703
C	-1.8204337	-0.6940091	-0.4280861
C	-1.9850373	-0.6909305	-1.9870874
H	-4.1080063	-1.1594069	-2.1805118
H	-3.5986525	0.2076720	-3.1873815
H	-4.8218972	0.6463002	-0.7602483
H	-3.4676100	1.6894743	-1.2406613
H	-1.8136467	-1.7213600	-0.0448275
H	-1.3145556	0.0545032	-2.4300436
H	-1.7296503	-1.6632692	-2.4142645
C	3.4094435	0.4218750	2.5429473
H	2.9105899	1.3929901	2.3622168
O	3.6834530	-0.3203170	1.5931673
C	3.7074927	0.1065421	3.9819782
H	2.7788170	0.1041230	4.5681544
H	4.1976000	-0.8656674	4.0667150
H	4.3523104	0.8838100	4.4131139
