31
-0.00554792 (energy)
C	0.4700281	-0.0082952	-0.1386917
O	-0.1136281	-1.0150167	-0.5393296
O	-0.1686587	0.9741544	0.5980122
H	-1.1164489	0.7472829	0.7200434
N	2.7747209	-0.7366297	-0.7723745
C	3.6111379	-2.9831190	-0.4635615
H	3.8412887	-3.1270049	-1.5115901
H	3.8469746	-3.8035525	0.2020181
C	3.0343828	-1.8597548	0.0217956
C	2.6782100	-1.7356357	1.4878565
H	1.5952038	-1.6554401	1.6410178
H	3.0193509	-2.6211861	2.0281060
H	3.1475441	-0.8565484	1.9477819
C	3.2086957	0.8858973	-2.4194291
C	3.2547469	-0.6277629	-2.1555004
C	1.9189826	0.3829819	-0.3869316
C	1.9800314	1.3571544	-1.6136548
H	4.1212763	1.3570496	-2.0366813
H	3.1223760	1.1279562	-3.4830032
H	4.2682598	-1.0367022	-2.2256641
H	2.6157477	-1.1862236	-2.8580798
H	2.2814035	0.8833167	0.5189929
H	1.0725970	1.2496880	-2.2189986
H	2.0421827	2.3984948	-1.2897831
C	-4.5331848	1.7707914	1.4806052
H	-4.3321213	2.6428034	0.8296432
O	-3.5940280	1.1267152	1.9613986
C	-5.9850555	1.4592476	1.7131778
H	-6.4881769	1.2677764	0.7559660
H	-6.0897287	0.5882628	2.3635667
H	-6.4882433	2.3225462	2.1685138
