31
-0.00548232 (energy)
C	-0.4798432	0.0274850	-0.0960505
O	-0.2576780	0.3385537	1.0737924
O	0.5293324	-0.3406562	-0.9689178
H	1.4020595	-0.2938904	-0.5207783
N	-2.9716943	-0.0185773	0.0833669
C	-4.1706418	-0.9434870	1.9671768
H	-4.6931319	-0.0216707	2.1892024
H	-4.3982415	-1.7939479	2.5969712
C	-3.2545369	-1.0571986	0.9782447
C	-2.5084450	-2.3545020	0.7503204
H	-1.4329927	-2.2467692	0.9362993
H	-2.8821508	-3.1213393	1.4320467
H	-2.6357090	-2.7224074	-0.2758618
C	-3.4543231	1.7813148	-1.3523122
C	-3.7612198	1.2185484	0.0448472
C	-1.8204336	0.0237287	-0.8150727
C	-1.9850372	1.3754028	-1.5919072
H	-4.1080063	1.3086748	-2.0943321
H	-3.5986526	2.8641890	-1.4138419
H	-4.8218973	0.9815441	0.1795878
H	-3.4676102	1.9191811	0.8427967
H	-1.8136465	-0.8218584	-1.5131553
H	-1.3145556	2.1317310	-1.1678208
H	-1.7296502	1.2591796	-2.6475658
C	4.9675262	1.4027591	-0.2204468
H	5.4578651	0.8232387	0.5847282
O	3.8224149	1.1120426	-0.5840619
C	5.7857548	2.5217573	-0.8013281
H	6.7238614	2.1282082	-1.2149970
H	5.2266518	3.0372004	-1.5851004
H	6.0615477	3.2359096	-0.0140936
