31
-0.00443258 (energy)
C	-0.4700281	0.1242581	-0.0621621
O	0.1136282	0.9745816	0.6093653
O	0.1686587	-1.0049711	-0.5446362
H	1.1164488	-0.9972174	-0.2871441
N	-2.7747209	1.0372110	0.2517527
C	-3.6111378	1.8930161	2.3516758
H	-3.8412886	2.8725785	1.9522701
H	-3.8469745	1.7268242	3.3949819
C	-3.0343828	0.9110023	1.6214926
C	-2.6782100	-0.4207031	2.2470329
H	-1.5952038	-0.5934425	2.2541622
H	-3.0193508	-0.4457975	3.2840668
H	-3.1475442	-1.2585540	1.7156839
C	-3.2086956	1.6523383	-1.9769243
C	-3.2547468	2.1805997	-0.5340920
C	-1.9189825	0.1436017	-0.5251378
C	-1.9800314	0.7188886	-1.9821577
H	-4.1212762	1.0852927	-2.1935802
H	-3.1223759	2.4523908	-2.7183408
H	-4.2682597	2.4458329	-0.2150220
H	-2.6157476	3.0682816	-0.4017407
H	-2.2814035	-0.8911194	-0.5054781
H	-1.0725970	1.2968648	-2.1917610
H	-2.0421827	-0.0822628	-2.7220489
C	3.6506370	1.4737589	1.3769650
H	3.9763632	2.0744977	0.5065639
O	2.9934469	0.4408527	1.2060316
C	4.0628510	2.0067186	2.7205095
H	3.6645514	3.0201666	2.8630840
H	3.7007680	1.3544415	3.5180101
H	5.1567110	2.0854370	2.7760706
