31
-0.00439768 (energy)
C	-0.3316417	0.3315546	0.1425341
O	-0.8660145	-0.5467904	-0.5339342
O	1.0233420	0.3272244	0.4251313
H	1.4519015	-0.4630929	0.0296521
N	-2.3098244	1.8537551	0.2580025
C	-3.7737162	2.3058575	-1.6113013
H	-4.6641655	1.9634449	-1.0995491
H	-3.9067909	2.6818048	-2.6176219
C	-2.5380024	2.2573395	-1.0628286
C	-1.3182174	2.6929882	-1.8463678
H	-0.6304625	1.8589099	-2.0310262
H	-1.6233385	3.0855338	-2.8186102
H	-0.7584016	3.4793931	-1.3240901
C	-2.7162778	1.7164776	2.5709373
C	-3.4068194	1.6070275	1.2019526
C	-1.0029923	1.5177721	0.8180828
C	-1.3050489	1.1489393	2.3115060
H	-2.6563712	2.7683357	2.8730788
H	-3.2439607	1.1673749	3.3566029
H	-4.1877678	2.3620874	1.0627878
H	-3.8642994	0.6161375	1.0514029
H	-0.3046782	2.3615113	0.7647479
H	-1.3127486	0.0593927	2.4309057
H	-0.5415801	1.5513362	2.9810862
C	3.6434242	1.0630578	-2.4007551
H	3.7622389	2.0102927	-1.8411015
O	3.5228809	-0.0057500	-1.7915495
C	3.6425856	1.1930525	-3.8981457
H	4.5812257	1.6508233	-4.2379214
H	3.5208440	0.2142069	-4.3667790
H	2.8308042	1.8593691	-4.2188426
