31
-0.00436316 (energy)
C	-0.4317821	-0.0037010	0.2319076
O	-0.5979043	0.1007202	-0.9830628
O	0.8261608	-0.0930236	0.8024003
H	1.5185609	-0.0780851	0.1059611
N	-2.8102374	0.3946633	0.8860411
C	-4.2271046	2.0658481	-0.1344008
H	-4.9789139	1.3524110	-0.4471737
H	-4.4190155	3.1057219	-0.3658291
C	-3.0821458	1.7101699	0.4922789
C	-2.0361245	2.7432040	0.8532207
H	-1.0979416	2.5841397	0.3079654
H	-2.3973208	3.7412795	0.5966497
H	-1.8059685	2.7317418	1.9262992
C	-3.2833082	-1.7300775	1.7778915
C	-3.8140340	-0.6728785	0.7962570
C	-1.5023136	-0.1006828	1.3083585
C	-1.7506183	-1.6116326	1.6444605
H	-3.5992501	-1.4812514	2.7974748
H	-3.6408785	-2.7384225	1.5485071
H	-4.7939427	-0.2810209	1.0888136
H	-3.9012276	-1.0707915	-0.2274025
H	-1.1271370	0.4321156	2.1902607
H	-1.3979594	-2.2390055	0.8177427
H	-1.2084964	-1.9115708	2.5440640
C	3.6309262	-3.1273983	-0.0044589
H	4.4684492	-3.2614843	0.7062866
O	3.4289226	-2.0236626	-0.5230862
C	2.8031198	-4.3542620	-0.2664129
H	2.3708485	-4.7255962	0.6723626
H	2.0034250	-4.1315189	-0.9759554
H	3.4358524	-5.1588636	-0.6640044
