31
-0.00337584 (energy)
C	0.4034942	-2.2380598	2.7877655
O	0.8911807	-3.2650053	3.2656645
O	-0.8927895	-1.8466465	3.0489125
H	-1.3429442	-2.5185049	3.6059037
N	0.3785506	-0.7627490	0.7664263
C	0.2876275	-2.9484391	-0.2726738
H	0.8673510	-3.4420873	0.4966321
H	-0.0387741	-3.5659263	-1.0996257
C	-0.8541167	-1.0097172	-1.3550638
H	-0.2919701	-0.2359427	-1.8940075
H	-1.1463538	-1.7748647	-2.0770011
H	-1.7680132	-0.5419749	-0.9678187
C	1.1234023	1.2241137	1.7698533
C	-0.0078805	0.6510524	0.9004249
C	1.1471977	-1.2313524	1.9170931
C	1.4588886	0.0649498	2.7352222
H	1.9889248	1.4609478	1.1406278
H	0.8277363	2.1337538	2.3012493
H	-0.0650217	1.1370993	-0.0761829
H	-0.9842804	0.7631584	1.3981823
H	2.0628278	-1.7386579	1.5898022
H	0.8120177	0.1137307	3.6172344
H	2.4966555	0.0791713	3.0775029
C	-0.0317598	-1.6322144	-0.2477991
C	4.4365334	-2.2701662	-0.5262922
H	3.9567835	-2.3540965	-1.5199615
O	4.3742875	-1.2087857	0.1042703
C	5.1365169	-3.5082110	-0.0401378
H	5.9202297	-3.8025879	-0.7509003
H	5.5787842	-3.3360490	0.9433949
H	4.4281212	-4.3454308	0.0151053
