31
-0.00573995 (energy)
C	2.2689775	0.3753714	-0.9868200
O	2.8723231	0.6123289	-2.0359471
O	2.7957097	-0.4299875	0.0009574
H	3.6591360	-0.7979910	-0.2877301
N	0.0000000	0.0000000	0.0000000
C	-0.1633237	-1.3290248	-2.0179830
H	0.4904175	-0.6937888	-2.6016757
H	-0.5823492	-2.1865300	-2.5286496
C	-1.3890746	-2.0371939	0.0386701
H	-2.3071615	-1.5322662	0.3663293
H	-1.6774393	-2.8740980	-0.6004574
H	-0.9017746	-2.4454955	0.9329725
C	-0.0169911	1.7771975	1.5331580
C	-0.2239653	0.2570055	1.4317496
C	0.9205944	0.9676106	-0.5921800
C	1.1112864	2.0563277	0.5147155
H	-0.9362909	2.2955799	1.2376719
H	0.2480109	2.1004565	2.5443567
H	-1.2301304	-0.0438983	1.7323459
H	0.4996542	-0.2832784	2.0627449
H	0.4988743	1.3893886	-1.5125671
H	2.0874750	1.9328346	0.9948948
H	1.0683764	3.0636851	0.0931608
C	-0.4734074	-1.1007247	-0.7192138
C	5.3060268	-3.6425246	-1.8841311
H	4.3485784	-4.1310555	-1.6210474
O	5.5021619	-2.4601703	-1.5815068
C	6.2965024	-4.5103406	-2.6086528
H	5.8586532	-4.8827763	-3.5444021
H	7.2077977	-3.9497361	-2.8273768
H	6.5420167	-5.3914043	-2.0009829
