31
-0.0033441 (energy)
C	3.4497840	-0.5950044	-0.8296480
O	4.3757076	-1.3855812	-1.0258535
O	3.6241190	0.5896060	-0.1454995
H	4.5477866	0.6587363	0.1805853
N	0.9952995	-0.4300977	-0.3699877
C	1.6107744	-2.2347827	1.1231765
H	2.4029662	-2.6138336	0.4904427
H	1.4344787	-2.7713083	2.0466147
C	-0.2347799	-0.6756697	1.7531660
H	-1.2287946	-0.7412309	1.2918283
H	-0.2443123	-1.2883367	2.6568224
H	-0.0800344	0.3684583	2.0528306
C	0.3652211	0.8151786	-2.2572029
C	0.2685243	0.8001348	-0.7227554
C	2.0265322	-0.7570721	-1.3518676
C	1.7690216	0.2322238	-2.5358726
H	-0.4096884	0.1672248	-2.6824268
H	0.2416292	1.8176291	-2.6779919
H	-0.7659910	0.7590225	-0.3743917
H	0.7426202	1.6945844	-0.2881521
H	1.9417600	-1.8039576	-1.6676228
H	2.5158659	1.0327228	-2.5220219
H	1.8380315	-0.2760664	-3.5008582
C	0.8518016	-1.1556541	0.8157416
C	5.6580381	2.8610563	2.7799327
H	5.6110724	3.5615049	1.9245095
O	5.1488865	1.7382377	2.6901831
C	6.3648381	3.3790300	4.0010858
H	5.8747848	4.2933008	4.3616458
H	6.3638002	2.6257376	4.7917350
H	7.3990811	3.6510832	3.7518031
