31
-0.00421281 (energy)
C	-0.4149327	0.1317166	0.2236005
O	-0.6120941	-0.0731630	-0.9763972
O	0.8302979	-0.0051564	0.8001594
H	1.4774814	-0.3253423	0.1346471
N	-1.4272493	-0.0751740	2.5029398
C	-2.0309387	-2.2174143	1.5481611
H	-2.1183783	-1.8470535	0.5348563
H	-2.2426570	-3.2686074	1.6959664
C	-1.5728697	-2.0327249	3.9955788
H	-2.2985367	-1.5843051	4.6866093
H	-1.7630224	-3.1073156	3.9617627
H	-0.5739883	-1.8782429	4.4225677
C	-1.3991653	2.1921874	3.1092207
C	-0.9598421	0.7995062	3.5904066
C	-1.4622155	0.6198573	1.2183580
C	-1.2088072	2.1211403	1.5772726
H	-2.4547037	2.3524633	3.3567984
H	-0.8152299	2.9988876	3.5625413
H	-1.4227295	0.5259265	4.5412793
H	0.1338441	0.7507950	3.7135513
H	-2.4316892	0.4747928	0.7264903
H	-0.1829250	2.3992462	1.3146138
H	-1.8870765	2.7806797	1.0302103
C	-1.6842279	-1.4449900	2.6056235
C	3.9651890	1.5574659	-0.6948463
H	3.1276660	1.9265549	-0.0728242
O	4.1671927	0.3429127	-0.8046966
C	4.7929955	2.6207472	-1.3606146
H	5.2252668	3.2907674	-0.6054580
H	5.5926903	2.1687593	-1.9511838
H	4.1602629	3.2408410	-2.0094185
