31
-0.0030132 (energy)
C	0.0138227	-0.4868571	-0.0479025
O	1.1516318	-0.0285494	0.0793257
O	-1.1081074	0.3150287	-0.0503121
H	-0.8553486	1.2502917	0.1099009
N	-1.4539846	-2.4366595	0.5059827
C	-0.3252773	-2.1093941	2.6235648
H	0.5959901	-1.7493258	2.1840007
H	-0.3474213	-2.1802040	3.7034600
C	-2.6738377	-2.9559106	2.5852900
H	-2.9094540	-3.9929425	2.3128094
H	-2.5494757	-2.9148339	3.6692151
H	-3.5430617	-2.3410726	2.3200123
C	-1.9930813	-3.1049660	-1.6785159
C	-2.6294621	-2.7253823	-0.3312813
C	-0.3240211	-1.9546389	-0.2847639
C	-0.7615543	-2.1759411	-1.7701850
H	-1.6797205	-4.1549413	-1.6561253
H	-2.6776361	-2.9702449	-2.5214158
H	-3.2214982	-3.5408712	0.0903116
H	-3.2829517	-1.8447900	-0.4370908
H	0.5866857	-2.5140847	-0.0388161
H	-1.0470264	-1.2199569	-2.2211471
H	0.0513501	-2.5995678	-2.3652020
C	-1.4144220	-2.4685241	1.9025489
C	4.5328137	-0.8054796	-3.0877972
H	5.0316672	-1.7798427	-2.9254871
O	4.2588041	-0.4328914	-4.2341431
C	4.2347644	-0.0169857	-1.8434009
H	5.1634400	0.1857717	-1.2934028
H	3.7446571	0.9255739	-2.0962899
H	3.5899466	-0.5999214	-1.1724244
