31
-0.0029658 (energy)
C	1.9883246	-1.9859980	2.2462710
O	2.2743635	-2.3254859	3.3968240
O	2.9482028	-1.7833042	1.2770946
H	3.8449016	-1.9000625	1.6599404
N	0.4025543	-0.6167167	0.8775571
C	0.8636229	0.9152799	2.6956987
H	1.0023017	0.1401978	3.4384069
H	0.9615975	1.9361792	3.0418828
C	0.4042434	1.8042133	0.4082201
H	-0.6114688	1.8314558	-0.0074511
H	0.5887658	2.7595898	0.9034514
H	1.1017499	1.7186254	-0.4344588
C	-0.4948676	-2.3341336	-0.4469829
C	0.1804104	-0.9557478	-0.5373030
C	0.5739450	-1.8082616	1.7053780
C	0.2024250	-2.9989031	0.7613274
H	-1.5655836	-2.2085871	-0.2496259
H	-0.3825542	-2.9199649	-1.3642793
H	-0.4575252	-0.2142582	-1.0236164
H	1.1271543	-1.0154800	-1.0974771
H	-0.0790213	-1.7648321	2.5854949
H	1.1121080	-3.5118217	0.4324532
H	-0.4298862	-3.7291774	1.2724052
C	0.5767038	0.6698191	1.3947372
C	5.3065265	1.3944244	1.9446919
H	4.6933334	2.3155976	1.9405740
O	5.1211585	0.5227272	1.0880737
C	6.3354436	1.3080546	3.0369135
H	5.8494966	1.3743297	4.0195172
H	6.8916459	0.3710206	2.9649199
H	7.0301097	2.1557919	2.9691361
