31
-0.00260347 (energy)
C	-1.6015915	-0.0774876	3.2205988
O	-2.4108478	0.4020108	4.0181124
O	-0.3658536	-0.5451897	3.6155170
H	-0.2364853	-0.3885432	4.5762448
N	-0.7242144	0.0916504	0.8829551
C	-0.8470435	2.4339068	1.4862666
H	-1.7018923	2.3175631	2.1399463
H	-0.4594151	3.4384839	1.3756006
C	0.9356549	1.6445064	-0.0734205
H	0.7187259	1.3981871	-1.1210200
H	1.2312026	2.6946958	-0.0309870
H	1.7958089	1.0372787	0.2353804
C	-1.2502422	-2.0753652	0.1504038
C	-0.0853770	-1.0775170	0.2576125
C	-1.8510048	-0.2890129	1.7314127
C	-2.0732632	-1.8079213	1.4307394
H	-1.8466415	-1.8523324	-0.7416212
H	-0.9116532	-3.1137647	0.0846077
H	0.3310475	-0.8220992	-0.7194350
H	0.7263712	-1.4833475	0.8821551
H	-2.7371938	0.3099843	1.4890737
H	-1.6857686	-2.4122360	2.2574307
H	-3.1349971	-2.0388293	1.3136017
C	-0.2640678	1.4096310	0.8183798
C	4.0202284	-2.3363080	-0.8114581
H	4.7733343	-1.9496424	-1.5241320
O	3.3193066	-1.5507612	-0.1636641
C	3.9347384	-3.8335233	-0.7108798
H	4.9056322	-4.2476280	-0.4076811
H	3.1695397	-4.1250622	0.0116524
H	3.6988752	-4.2650527	-1.6926965
