31
-0.00253434 (energy)
C	1.6627759	1.4272473	-0.7833034
O	2.5538918	1.6283474	-1.6117439
O	1.3935446	2.3121409	0.2395512
H	2.0336080	3.0565820	0.2195918
N	0.4805004	-0.3499693	0.5231047
C	2.7799714	-1.0704309	0.7651894
H	3.0969089	-0.6982625	-0.2005438
H	3.5350248	-1.5677326	1.3603897
C	1.1471680	-1.4863051	2.6076856
H	0.3913837	-2.2797627	2.5412688
H	2.0297314	-1.9049439	3.0954049
H	0.7417135	-0.7000731	3.2568344
C	-1.6944963	0.0056364	-0.2845009
C	-0.8840614	-0.1055075	1.0174007
C	0.7004397	0.2446917	-0.7931197
C	-0.7199635	0.7072330	-1.2572275
H	-1.9450289	-0.9966651	-0.6502461
H	-2.6258226	0.5652710	-0.1553276
H	-1.2268282	-0.9286853	1.6483989
H	-0.9467713	0.8257644	1.6026246
H	1.1367159	-0.4895677	-1.4811481
H	-0.8093963	1.7938609	-1.1571856
H	-0.8997507	0.4494835	-2.3039177
C	1.5180965	-0.9488341	1.2426413
C	3.2306461	3.1671528	-5.8988991
H	4.2656567	3.3069194	-6.2646876
O	2.2773150	3.5994995	-6.5563551
C	3.1005062	2.4376805	-4.5912248
H	3.6493616	2.9722421	-3.8044285
H	2.0498952	2.3452857	-4.3079290
H	3.5509240	1.4392667	-4.6693719
