31
-0.0025088 (energy)
C	3.2970513	0.9834552	1.0514868
O	4.4296095	0.6744717	1.4292218
O	2.6042698	2.0467722	1.5910834
H	3.1227118	2.4532920	2.3192535
N	1.1223330	0.0653343	0.2204450
C	1.6042268	-1.4826153	2.0195747
H	2.6792561	-1.4248194	1.9074545
H	1.2361514	-2.1464996	2.7912327
C	-0.7639470	-0.9093274	1.4747036
H	-1.2711538	-1.3261077	0.5947993
H	-0.9630739	-1.5708115	2.3201822
H	-1.2243697	0.0632857	1.6891401
C	1.0544188	1.1473113	-1.8613826
C	0.2309927	0.9169996	-0.5834814
C	2.5308826	0.3091604	-0.0811813
C	2.5078733	1.2328271	-1.3434000
H	0.9379045	0.2908038	-2.5351510
H	0.7527516	2.0502700	-2.4007413
H	-0.7160411	0.4122928	-0.7876079
H	0.0106058	1.8708058	-0.0781396
H	3.0539702	-0.6351787	-0.2747265
H	2.7424222	2.2629285	-1.0559199
H	3.2459139	0.9133510	-2.0833660
C	0.7283321	-0.7859730	1.2563103
C	6.6787748	0.0112555	-3.9370429
H	7.1355065	-0.9197358	-3.5507345
O	5.7031586	0.5075701	-3.3627111
C	7.3254376	0.5866125	-5.1658104
H	7.3009798	-0.1460042	-5.9835644
H	6.8128527	1.4997737	-5.4756008
H	8.3831438	0.8058849	-4.9683506
