31
-0.00193518 (energy)
C	3.5899161	0.2028808	0.1212346
O	4.6852113	-0.3586094	0.1980438
O	3.3140564	1.3759844	0.7916697
H	4.0813870	1.6367737	1.3461649
N	1.1267687	-0.1895807	-0.0833508
C	1.7106664	-1.8583279	1.5718178
H	2.7041940	-2.0349839	1.1802888
H	1.4210126	-2.4476647	2.4323181
C	-0.5314115	-0.7625104	1.6496732
H	-1.3301947	-1.0312688	0.9461746
H	-0.6424368	-1.3888416	2.5370454
H	-0.6940590	0.2807219	1.9482705
C	0.7553746	0.9421879	-2.1058392
C	0.2657874	0.8606941	-0.6505836
C	2.4249498	-0.2525376	-0.7505868
C	2.2756883	0.6906544	-1.9895363
H	0.2810579	0.1526457	-2.6998015
H	0.5290990	1.9049841	-2.5738863
H	-0.7885728	0.5828269	-0.5843733
H	0.4007832	1.8241786	-0.1337077
H	2.6581725	-1.2825975	-1.0462902
H	2.7978767	1.6349866	-1.8042718
H	2.7051109	0.2388570	-2.8871965
C	0.8407716	-0.9638165	1.0443647
C	6.1359136	-2.2586053	4.5725475
H	6.8939201	-1.5151255	4.8843916
O	5.9926546	-3.3046184	5.2154670
C	5.3365126	-1.8937923	3.3531429
H	6.0051334	-1.7384542	2.4959013
H	4.6160499	-2.6803410	3.1189391
H	4.8074384	-0.9458203	3.5181972
