31
-0.00454845 (energy)
C	-2.4932094	-0.1946635	-0.0948127
O	-3.4250705	-0.8161178	-0.6108281
O	-2.5765010	1.1503612	0.1979756
H	-3.4375905	1.5100433	-0.1076807
N	0.0000000	0.0000000	0.0000000
C	-0.3396269	-0.2521207	-2.3846018
H	-1.2158464	-0.8802994	-2.2885277
H	-0.0096878	-0.0378535	-3.3930202
C	1.5560378	1.1357080	-1.5395116
H	2.4649997	0.6805293	-1.1250278
H	1.7194996	1.2969948	-2.6068979
H	1.4333111	2.1164851	-1.0631055
C	0.3008214	-0.4244481	2.2888083
C	0.6405501	0.5914188	1.1857649
C	-1.1685877	-0.8028529	0.3525216
C	-1.1193859	-0.9037535	1.9127409
H	1.0090739	-1.2600200	2.2521721
H	0.3389799	0.0125471	3.2912176
H	1.7178449	0.6969920	1.0389327
H	0.2265695	1.5846120	1.4221423
H	-1.1174459	-1.7897748	-0.1231111
H	-1.8679304	-0.2371259	2.3532582
H	-1.3323872	-1.9204306	2.2523241
C	0.3424669	0.2563152	-1.3304123
C	2.8107813	-2.6704987	-0.8686093
H	2.7815838	-2.2907319	-1.9076028
O	2.6548766	-1.8933021	0.0799007
C	3.0463988	-4.1481877	-0.7271960
H	3.9996597	-4.4251836	-1.1968916
H	3.0597184	-4.4340477	0.3266936
H	2.2604053	-4.7077429	-1.2515295
