31
-0.00339329 (energy)
C	-1.8165177	-1.0614362	0.9945046
O	-2.3448429	-2.1257552	1.3245655
O	-2.4316078	0.1578114	1.1864762
H	-3.3299183	0.0278396	1.5611997
N	-0.3413897	0.0189713	-0.7142064
C	-1.7796315	-1.3097632	-2.1393949
H	-1.9192141	-2.1039270	-1.4173007
H	-2.2724964	-1.4363088	-3.0947735
C	-0.8894935	0.8731981	-2.9616630
H	0.1525112	0.9856272	-3.2884382
H	-1.4892824	0.6190074	-3.8378405
H	-1.2252019	1.8504780	-2.5926479
C	1.3863586	0.7275418	0.7078015
C	0.4089769	1.2359164	-0.3647590
C	-0.4178768	-0.9170177	0.4049521
C	0.5618934	-0.3311234	1.4743744
H	2.2537775	0.2620331	0.2261061
H	1.7467484	1.5263851	1.3629456
H	0.9269913	1.6421125	-1.2365016
H	-0.2494834	2.0205862	0.0407164
H	-0.1222152	-1.9243202	0.0874894
H	-0.0066436	0.1478123	2.2782110
H	1.1794996	-1.1151140	1.9196158
C	-1.0341187	-0.2027357	-1.9075004
C	4.4083557	-2.6902447	-0.7424970
H	4.4461112	-2.3091710	-1.7807360
O	3.8694442	-2.0191490	0.1447556
C	5.0432694	-4.0350004	-0.5243347
H	6.1014099	-4.0048479	-0.8166980
H	4.9602312	-4.3315067	0.5234084
H	4.5600826	-4.7883640	-1.1605635
