31
-0.00411788 (energy)
C	-0.4156257	0.2225197	-0.0000839
O	0.4828768	1.0436212	-0.1758793
O	-0.1141596	-1.1035358	0.1604475
H	-0.9030243	-1.6986166	0.2459129
N	-2.6754712	-0.1070276	1.0688726
C	-2.9108463	-2.1666870	-0.1920729
H	-2.5086137	-1.7696400	-1.1171780
H	-3.2775141	-3.1834920	-0.2298068
C	-3.7944042	-2.0247422	2.1377014
H	-4.7601628	-1.5407605	2.3299439
H	-3.9832405	-3.0858560	1.9660278
H	-3.1882623	-1.9260761	3.0454990
C	-3.0932269	2.1640576	1.5479253
C	-2.9499321	0.7842819	2.2144260
C	-1.9144945	0.6139923	0.0290784
C	-2.0927399	2.1207757	0.3676088
H	-4.1186974	2.2874952	1.1813870
H	-2.8816698	2.9839093	2.2407957
H	-3.8541741	0.4777843	2.7424278
H	-2.1157186	0.7763830	2.9327519
H	-2.3338450	0.3770748	-0.9593972
H	-1.1221030	2.5422190	0.6400112
H	-2.4565473	2.6811252	-0.4973430
C	-3.1059079	-1.4188690	0.9333054
C	4.0333348	-0.4047898	-2.4918223
H	4.0073360	-1.4912200	-2.7005718
O	4.2414186	0.3976493	-3.4087764
C	3.8029799	-0.0166384	-1.0581720
H	4.5589461	-0.4852470	-0.4139919
H	3.8454988	1.0686366	-0.9443869
H	2.8256066	-0.3852791	-0.7195590
