31
-0.00515378 (energy)
C	-1.2312352	-1.3600825	1.7298574
O	-1.1756366	-2.3914890	2.3973362
O	-1.8003935	-0.2306550	2.2547646
H	-1.8468570	0.5371802	1.6286629
N	0.0000000	0.0000000	0.0000000
C	-2.0157118	1.3111891	-0.3244548
H	-2.6951011	0.4667678	-0.2991604
H	-2.4608666	2.2745094	-0.5332911
C	0.2195437	2.4160908	-0.4316726
H	0.8231376	2.3461688	-1.3452756
H	-0.3987466	3.3120039	-0.5100961
H	0.9082991	2.5465956	0.4108379
C	1.5937755	-1.6433134	-0.5667804
C	1.4619834	-0.2102428	-0.0213657
C	-0.6968358	-1.2716729	0.2781997
C	0.3569999	-2.3805469	0.0014338
H	1.5615001	-1.6212822	-1.6620657
H	2.5330354	-2.1172036	-0.2664448
H	1.9553526	0.5270824	-0.6564394
H	1.8896284	-0.1307105	0.9899507
H	-1.5608379	-1.3684665	-0.3950017
H	0.5844696	-2.8976295	0.9367608
H	-0.0286312	-3.1289360	-0.6954817
C	-0.6571895	1.1943893	-0.2571342
C	2.1426709	-0.8517394	4.5803415
H	2.4764965	0.1697894	4.8442019
O	2.4071319	-1.3222540	3.4682766
C	1.3750017	-1.5770266	5.6497903
H	0.4771347	-1.0066210	5.9227725
H	1.0868539	-2.5724078	5.3051689
H	1.9842711	-1.6633078	6.5592735
