31
-0.00408469 (energy)
C	-3.6292560	-0.1383677	0.3980000
O	-4.5179081	-0.9456638	0.6644379
O	-3.6384316	1.1074481	0.9662729
H	-2.9128062	1.7080259	0.6556169
N	-1.1733556	0.0650526	-0.1361760
C	-1.5710154	2.3541441	-0.8358250
H	-2.4943713	2.1434838	-1.3633599
H	-1.2106686	3.3722211	-0.8943984
C	0.5439347	1.7639138	0.3504654
H	1.3702275	1.2970914	-0.2001726
H	0.6869830	2.8451101	0.3099040
H	0.6219125	1.4459971	1.3964520
C	-0.7689420	-2.2332410	-0.4769629
C	-0.3370242	-1.0347024	0.3864546
C	-2.4786334	-0.4547238	-0.5902790
C	-2.2747621	-1.9886956	-0.7390659
H	-0.2065788	-2.2267766	-1.4176449
H	-0.5847433	-3.1905705	0.0195987
H	0.7243219	-0.8041165	0.2827482
H	-0.5438963	-1.2193673	1.4518510
H	-2.7390127	0.0062817	-1.5539933
H	-2.9046506	-2.5044087	-0.0102080
H	-2.5785925	-2.3347439	-1.7302403
C	-0.7953819	1.3949155	-0.2509915
C	4.1025003	-1.4245714	-0.7115849
H	3.7128760	-2.1798591	-0.0028422
O	3.6073206	-0.2924513	-0.7449508
C	5.2351179	-1.8833615	-1.5866660
H	4.9240652	-2.7519206	-2.1823994
H	5.5551955	-1.0780567	-2.2512044
H	6.0816544	-2.2100562	-0.9682326
