31
-0.00402365 (energy)
C	-0.0722553	-0.4657213	-0.0119407
O	-0.0893566	-0.0835308	1.1568435
O	0.1381864	0.4302760	-1.0258333
H	0.0853684	0.0421659	-1.9370490
N	0.5880433	-2.3890525	-1.5029048
C	-0.6946181	-1.3703411	-3.2930414
H	-1.5358218	-1.0866924	-2.6708063
H	-0.7954499	-1.1689835	-4.3508928
C	1.4463334	-2.5452325	-3.8074614
H	1.4679531	-3.6397986	-3.8805555
H	1.2444768	-2.1499113	-4.8044912
H	2.4455950	-2.2141242	-3.5023662
C	0.9872755	-3.9529275	0.2166149
C	1.6685335	-3.2410589	-0.9656153
C	-0.3038119	-1.9441812	-0.4134962
C	-0.0013765	-2.9005023	0.7742552
H	0.4482347	-4.8341164	-0.1496063
H	1.7063562	-4.2866193	0.9706410
H	2.0314937	-3.9384125	-1.7221456
H	2.5208061	-2.6336596	-0.6240541
H	-1.3500898	-2.0347226	-0.7393391
H	0.4354368	-2.3243631	1.5935300
H	-0.9163622	-3.3608821	1.1554906
C	0.3797911	-2.0798507	-2.8391709
C	4.2032091	-1.4352651	2.7621230
H	4.2882203	-1.0679306	3.8025178
O	4.0459948	-2.6413688	2.5416472
C	4.2926547	-0.3804351	1.6951594
H	5.2501412	0.1521560	1.7700808
H	4.1992303	-0.8300143	0.7043379
H	3.5017854	0.3680537	1.8369465
