31
-0.00401829 (energy)
C	2.2824726	-0.0159360	2.6447906
O	3.0968850	-0.2875121	3.5253571
O	0.9410093	-0.1558761	2.8813670
H	0.3618192	0.0372816	2.0997264
N	1.8335639	1.5425654	0.7140589
C	0.0318918	0.0737017	0.0183586
H	0.5727516	-0.8482795	0.1991298
H	-0.9524814	-0.0292740	-0.4177227
C	-0.2097068	2.5452382	-0.2302545
H	0.2595352	3.0601001	-1.0779657
H	-1.2192297	2.2609290	-0.5321241
H	-0.2870218	3.2651488	0.5925398
C	3.9971684	2.4735334	0.5959348
C	2.5190930	2.8478770	0.8049739
C	2.7035289	0.4692002	1.2348036
C	4.1327107	1.0805207	1.2570991
H	4.2103489	2.4145691	-0.4774963
H	4.6778978	3.2088415	1.0351524
H	2.1501169	3.5387816	0.0454426
H	2.3636403	3.3103940	1.7918271
H	2.6537090	-0.3988486	0.5616930
H	4.4737659	1.1520198	2.2927259
H	4.8446943	0.4436104	0.7261438
C	0.5775223	1.3158453	0.1704234
C	4.5648614	-3.6147183	4.5979502
H	4.5312543	-2.5266997	4.3987796
O	4.7343566	-4.4101955	3.6670906
C	4.3932955	-4.0137603	6.0368417
H	3.4307312	-3.6474409	6.4180595
H	4.4398136	-5.0998852	6.1405021
H	5.1752087	-3.5503249	6.6530013
