31
-0.00395025 (energy)
C	1.2891116	1.9108147	1.0223256
O	2.3338791	2.1970719	1.6045079
O	0.7240443	2.7987371	0.1463301
H	-0.1419832	2.5050595	-0.2377051
N	0.0000000	0.0000000	0.0000000
C	-1.9530039	1.4371466	-0.0892588
H	-1.8058535	1.8748085	0.8915856
H	-2.8503782	1.7354687	-0.6141254
C	-1.5215719	-0.1936503	-1.9285626
H	-1.7869485	-1.2503405	-1.7986922
H	-2.3814726	0.3126394	-2.3705297
H	-0.6909092	-0.1463105	-2.6420034
C	1.3356617	-1.7375299	0.8711126
C	0.8338534	-1.1324512	-0.4519920
C	0.5440463	0.5711918	1.2481509
C	1.5046311	-0.5160257	1.8067255
H	0.5806323	-2.4263485	1.2668858
H	2.2683391	-2.2954355	0.7452690
H	0.2487741	-1.8400569	-1.0413617
H	1.6743241	-0.7843675	-1.0720027
H	-0.2806838	0.7693920	1.9478692
H	2.5267195	-0.1298970	1.7928182
H	1.2660781	-0.7603050	2.8449494
C	-1.1640623	0.4499946	-0.6058429
C	3.0353817	3.9014795	-2.0180411
H	2.8285442	4.2502106	-0.9883870
O	3.2825979	2.7091193	-2.2305820
C	2.9894558	4.9629550	-3.0811679
H	3.7186340	5.7531060	-2.8575442
H	3.2042707	4.5319127	-4.0612872
H	2.0003337	5.4396326	-3.0963110
