31
-0.00383548 (energy)
C	-2.5203468	-0.0450710	0.0631806
O	-3.5095157	-0.6080193	-0.4027083
O	-2.5244379	0.3909975	1.3612187
H	-1.7048739	0.8775663	1.6356248
N	0.0000000	0.0000000	0.0000000
C	-0.0627080	2.1183266	1.1816693
H	-0.8892476	2.5304498	0.6140043
H	0.3895114	2.7768275	1.9108027
C	1.7411157	0.4670951	1.6799922
H	2.6100861	0.3860683	1.0150033
H	1.9827261	1.1971407	2.4544283
H	1.5992083	-0.5082143	2.1594432
C	0.2581139	-1.3837560	-1.8922040
C	0.6281301	-1.2750128	-0.4023045
C	-1.2408821	0.2249813	-0.7679337
C	-1.1476312	-0.7419788	-1.9816317
H	0.9808678	-0.8167871	-2.4899916
H	0.2646963	-2.4185855	-2.2472633
H	1.7065785	-1.2500628	-0.2388828
H	0.2153044	-2.1194984	0.1707450
H	-1.2801541	1.2731766	-1.0978017
H	-1.9422499	-1.4880681	-1.9049149
H	-1.2947093	-0.2097396	-2.9248063
C	0.5068728	0.9053463	0.9208745
C	-8.1463990	-0.0475903	0.4026458
H	-8.3474625	-0.1753338	1.4833114
O	-9.0855560	0.0467508	-0.3955372
C	-6.6945284	-0.0019484	0.0165545
H	-6.1914070	-0.9266538	0.3293416
H	-6.5898554	0.1258123	-1.0629350
H	-6.1913406	0.8240335	0.5365249
