31
-0.00374647 (energy)
C	3.6292561	0.2661472	0.3266729
O	4.5179081	1.1158844	0.3009309
O	3.6384317	-0.7101758	1.2867689
H	2.9128063	-1.3807850	1.2002577
N	1.1733556	-0.1077044	-0.1057144
C	1.5710154	-2.4980408	0.0197464
H	2.4943713	-2.4805125	-0.5480243
H	1.2106686	-3.4747535	0.3129084
C	-0.5439347	-1.5376704	0.9326241
H	-1.3702275	-1.2873302	0.2555310
H	-0.6869829	-2.5675353	1.2642999
H	-0.6219124	-0.8811778	1.8067960
C	0.7689419	1.9354290	-1.2120122
C	0.3370242	1.1044775	0.0092593
C	2.4786333	0.2254132	-0.7102056
C	2.2747620	1.6159869	-1.3746691
H	0.2065787	1.6076221	-2.0937532
H	0.5847432	3.0048586	-1.0728231
H	-0.7243219	0.8523280	-0.0093277
H	0.5438964	1.6423929	0.9472452
H	2.7390126	-0.5374001	-1.4581276
H	2.9046506	2.3498829	-0.8661512
H	2.5785924	1.6021642	-2.4244238
C	0.7953819	-1.3966359	0.2412345
C	-2.2288926	3.3646512	2.7786085
H	-1.6810222	4.3167938	2.6450222
O	-1.6731239	2.2893945	2.5276975
C	-3.6432332	3.4964775	3.2698728
H	-4.2297789	4.1089031	2.5720577
H	-4.1055418	2.5124529	3.3725525
H	-3.6599880	4.0149868	4.2376954
