31
-0.00372184 (energy)
C	-3.5221138	0.6760598	-0.6976436
O	-4.3483693	0.5353569	-1.5976009
O	-3.8591083	0.3856152	0.5974054
H	-3.1476549	0.5763936	1.2616123
N	-1.0664371	0.4874281	-0.1570504
C	-1.4830252	1.6982829	1.9039850
H	-2.1565068	2.4250655	1.4641369
H	-1.2446773	1.8413307	2.9492070
C	0.1921551	-0.1512445	1.8628699
H	1.2001959	0.0298558	1.4692436
H	0.2131367	0.0514004	2.9350585
H	-0.0335542	-1.2139866	1.7183922
C	-0.3080364	0.2463773	-2.3770870
C	-0.3198660	-0.4599480	-1.0097896
C	-2.0862488	1.1994237	-0.9527724
C	-1.6674125	0.9844893	-2.4343763
H	0.5219853	0.9612685	-2.4113109
H	-0.1825518	-0.4561687	-3.2063428
H	0.6838302	-0.6331160	-0.6186539
H	-0.8350724	-1.4309613	-1.0703060
H	-2.0751208	2.2666114	-0.6880927
H	-2.4332375	0.3902824	-2.9387408
H	-1.5938823	1.9356825	-2.9675869
C	-0.8299215	0.7375927	1.1868469
C	5.0133416	0.1551839	0.3263083
H	5.1959847	-0.4432213	-0.5864543
O	3.8563725	0.4111748	0.6783073
C	6.2448982	0.6049752	1.0611785
H	6.8779512	1.2124541	0.4006786
H	5.9720728	1.1861624	1.9445610
H	6.8438226	-0.2648281	1.3620856
