31
-0.00504643 (energy)
C	2.9901527	1.1347858	1.7664362
O	3.6543532	0.8636944	2.7653185
O	3.6143195	1.4137286	0.5799785
H	3.0028498	1.6702326	-0.1576147
N	0.8308906	0.6193628	0.5705694
C	1.2161603	2.5529928	-0.8437235
H	1.5585359	3.2006463	-0.0446110
H	1.1285595	3.0079574	-1.8210130
C	0.1828010	0.4939553	-1.8035173
H	-0.8854031	0.2941826	-1.6521369
H	0.2864168	1.0604551	-2.7305747
H	0.6849734	-0.4716113	-1.9329137
C	-0.1900227	-0.5681167	2.3339378
C	0.2641273	-0.7113878	0.8704629
C	1.4422319	1.2011432	1.7821472
C	0.8589486	0.3788516	2.9655269
H	-1.1875901	-0.1151843	2.3637445
H	-0.2416580	-1.5319910	2.8489742
H	-0.5608585	-0.9476005	0.1966808
H	1.0255263	-1.4998482	0.7676603
H	1.1609390	2.2613542	1.8589306
H	1.6683403	-0.1734867	3.4490152
H	0.4169269	1.0318792	3.7222704
C	0.7643604	1.2797330	-0.6476534
C	4.3882344	-2.6699424	2.1130868
H	5.2208567	-1.9765544	2.3378894
O	3.6285681	-2.4395717	1.1655380
C	4.2743389	-3.8597663	3.0243633
H	4.1443405	-3.5285489	4.0633254
H	3.4299083	-4.4868377	2.7306029
H	5.2002825	-4.4492331	2.9932049
