31
-0.00365685 (energy)
C	-0.2078855	0.0608796	-0.4187326
O	0.0891224	-1.1247900	-0.2831138
O	0.0818719	0.9604736	0.5721490
H	-0.2385454	1.8829376	0.3985805
N	-0.4120648	1.9148724	-2.1155510
C	-1.6217632	3.2184294	-0.4648085
H	-2.2218114	2.3930398	-0.0988428
H	-1.8377756	4.1893329	-0.0400185
C	-0.0458985	4.3503188	-2.0345689
H	-0.3622909	4.5789620	-3.0599972
H	-0.2889904	5.2131240	-1.4120200
H	1.0433482	4.2290755	-2.0435739
C	-0.2060709	0.5616369	-4.0360091
C	0.4427831	1.7530476	-3.3093273
C	-0.9320647	0.6047425	-1.6759067
C	-0.7280114	-0.3414951	-2.8923635
H	-1.0362376	0.9201241	-4.6552724
H	0.4997510	0.0385107	-4.6880344
H	0.4479250	2.6608997	-3.9144376
H	1.4819783	1.5255822	-3.0259559
H	-1.9977849	0.7019819	-1.4232139
H	-0.0067856	-1.1171157	-2.6236641
H	-1.6589853	-0.8462171	-3.1626083
C	-0.7446878	3.1158421	-1.5059481
C	4.2915432	-0.8347945	-1.9665333
H	3.9658169	-1.8544702	-2.2471516
O	4.9487332	-0.1534165	-2.7614154
C	3.8793292	-0.3794512	-0.5947388
H	4.2776287	-1.0641521	0.1659116
H	4.2414123	0.6328456	-0.4030938
H	2.7854692	-0.4040389	-0.5015773
