31
-0.00361739 (energy)
C	-3.5221138	0.9663285	-0.0998632
O	-4.3483693	1.4370252	-0.8797125
O	-3.8591083	-0.0886064	0.7055078
H	-3.1476549	-0.3694056	1.3369497
N	-1.0664371	0.4743416	0.1930051
C	-1.4830252	0.0771022	2.5501723
H	-2.1565068	0.9165789	2.6803960
H	-1.2446773	-0.4851726	3.4428082
C	0.1921551	-1.3132897	1.3298231
H	1.2001959	-0.9215407	1.1446969
H	0.2131367	-1.8472442	2.2814248
H	-0.0335542	-2.0345289	0.5360292
C	-0.3080364	1.7166980	-1.6625860
C	-0.3198660	0.2967396	-1.0691926
C	-2.0862488	1.5312422	0.0411087
C	-1.6674125	2.3189494	-1.2320229
H	0.5219853	2.2863351	-1.2292798
H	-0.1825518	1.7115519	-2.7494207
H	0.6838302	-0.0873319	-0.8808755
H	-0.8350724	-0.4082005	-1.7397061
H	-2.0751208	2.1786225	0.9298401
H	-2.4332375	2.1879598	-2.0003374
H	-1.5938823	3.3903469	-1.0290707
C	-0.8299215	-0.1978617	1.3832929
C	3.3664276	1.6894770	-0.7776550
H	3.1397342	1.3463093	-1.8049957
O	3.0228203	1.0066588	0.1937900
C	4.0958262	3.0000503	-0.6804255
H	3.5104651	3.7945894	-1.1622002
H	4.2772249	3.2599853	0.3646128
H	5.0518549	2.9408307	-1.2173757
