31
-0.0044028 (energy)
C	1.5317211	2.9964692	1.4226919
O	1.9983403	4.0766803	1.0651599
O	0.7048414	2.9309232	2.5122096
H	0.4169496	2.0139391	2.7571414
N	0.6782291	0.7803888	0.5749240
C	0.7684070	-0.0622084	2.8485730
H	1.7217887	0.3932207	3.0912751
H	0.3343478	-0.6938820	3.6116868
C	-1.0796434	-0.7729481	1.3292871
H	-0.9064100	-1.5606876	0.5854176
H	-1.4384072	-1.2515469	2.2421536
H	-1.8756874	-0.1246576	0.9455255
C	1.4341043	1.0196042	-1.6461722
C	0.1604932	0.8090162	-0.8082550
C	1.8543728	1.6641536	0.7005146
C	2.3278794	1.9188158	-0.7581523
H	1.9165327	0.0521233	-1.8262287
H	1.2214635	1.4764407	-2.6172885
H	-0.3540829	-0.1211165	-1.0541102
H	-0.5483902	1.6392879	-0.9500286
H	2.6322819	1.1541717	1.2868973
H	2.2024341	2.9783749	-0.9938456
H	3.3889088	1.6852201	-0.8770578
C	0.1887758	0.0026761	1.6142412
C	5.3024272	2.7261560	2.0413579
H	5.2764284	2.0021585	2.8778593
O	5.5105110	2.3332700	0.8879483
C	5.0720725	4.1618092	2.4220342
H	5.8280388	4.4853812	3.1499511
H	5.1145915	4.8029875	1.5390511
H	4.0946992	4.2707364	2.9105930
