31
-0.00358176 (energy)
C	0.4047464	2.4622269	-0.3630292
O	-0.0491311	3.4675141	-0.9069145
O	1.0503537	2.5630379	0.8403425
H	1.4268611	1.7103484	1.1793056
N	0.0000000	0.0000000	0.0000000
C	2.2674176	-0.1928231	0.8421511
H	2.7135646	0.4467404	0.0890454
H	2.9522243	-0.6591251	1.5373948
C	0.4379643	-1.5439564	1.8698719
H	0.0947658	-2.4646076	1.3815059
H	1.2364774	-1.8138044	2.5631628
H	-0.4013030	-1.1449116	2.4509340
C	-1.7104375	-0.2429601	-1.6053701
C	-1.4144383	-0.4128671	-0.1046858
C	0.3023499	1.0502712	-0.9927951
C	-0.8592002	0.9803242	-2.0236585
H	-1.3882975	-1.1409769	-2.1447850
H	-2.7759248	-0.0940373	-1.8042203
H	-1.5495645	-1.4406567	0.2355636
H	-2.0637758	0.2361765	0.5028254
H	1.2693471	0.8336081	-1.4692847
H	-1.4316886	1.9099712	-1.9793079
H	-0.4787624	0.8839986	-3.0436964
C	0.9475080	-0.5412266	0.8566705
C	-4.7039543	-3.0498669	0.9488092
H	-4.5028907	-2.9221233	2.0294746
O	-3.7647975	-3.1442081	0.1506260
C	-6.1558250	-3.0955088	0.5627179
H	-6.6589463	-2.1708034	0.8755050
H	-6.2604981	-3.2232696	-0.5167715
H	-6.6590128	-3.9214906	1.0826884
