31
-0.00356974 (energy)
C	-1.2312352	0.0700475	2.1993918
O	-1.1756366	-0.2910085	3.3736856
O	-1.8003935	1.2726429	1.8755119
H	-1.8468570	1.4583884	0.9023352
N	0.0000000	0.0000000	0.0000000
C	-2.0157118	0.7958735	-1.0913630
H	-2.6951011	0.1652682	-0.5292027
H	-2.4608666	1.3995822	-1.8705513
C	0.2195437	1.5733589	-1.8837137
H	0.8231376	0.9325428	-2.5386292
H	-0.3987466	2.2092585	-2.5196716
H	0.9082991	2.2148868	-1.3222002
C	1.5937755	-1.6231705	0.6221226
C	1.4619834	-0.1747890	0.1187744
C	-0.6968358	-0.7953345	1.0305290
C	0.3569999	-1.8226829	1.5312846
H	1.5615001	-2.3103295	-0.2310758
H	2.5330354	-1.7931394	1.1568039
H	1.9553526	-0.0181826	-0.8416638
H	1.8896284	0.5361981	0.8423653
H	-1.5608379	-1.3022083	0.5770446
H	0.5844696	-1.6175745	2.5801609
H	-0.0286312	-2.8439509	1.4784716
C	-0.6571895	0.7496726	-0.9647149
C	5.3688191	-0.4047900	-2.1542057
H	5.2545537	-1.4912202	-1.9775824
O	4.6200109	0.3976491	-1.5855319
C	6.4668138	-0.0166388	-3.1043763
H	6.3017810	-0.4852474	-4.0837726
H	6.5073820	1.0686362	-3.2188715
H	7.4331814	-0.3852794	-2.7355254
