31
-0.00350889 (energy)
C	-2.5203468	0.0639617	-0.0439553
O	-3.5095158	0.4336166	0.5863767
O	-2.5244378	0.0981464	-1.4128563
H	-1.7048737	-0.2652262	-1.8371300
N	0.0000000	0.0000000	0.0000000
C	-0.0627077	-1.5864212	-1.8349162
H	-0.8892474	-2.1678433	-1.4424401
H	0.3895118	-1.9558314	-2.7452980
C	1.7411157	0.1356654	-1.7384321
H	2.6100861	-0.0156338	-1.0858341
H	1.9827262	-0.2854803	-2.7158542
H	1.5992083	1.2161384	-1.8553933
C	0.2581138	0.6531335	2.2513625
C	0.6281299	1.0605240	0.8141226
C	-1.2408821	-0.4740621	0.6446734
C	-1.1476313	0.0194741	2.1158964
H	0.9808677	-0.0840982	2.6191844
H	0.2646960	1.5041178	2.9389416
H	1.7065784	1.0929722	0.6520231
H	0.2153042	2.0500753	0.5644632
H	-1.2801540	-1.5718651	0.5961441
H	-1.9422501	0.7468073	2.2989836
H	-1.2947094	-0.8032519	2.8201540
C	0.5068729	-0.5357897	-1.1749856
C	6.1241619	1.4561328	-0.1145064
H	6.2746354	1.0157281	0.8894778
O	5.0525953	1.2926718	-0.7086761
C	7.2890036	2.2335923	-0.6601974
H	8.1767652	1.5900771	-0.7219591
H	7.0537109	2.6304388	-1.6500089
H	7.5427161	3.0592880	0.0177923
