31
-0.00349306 (energy)
C	3.2986564	-0.2661472	-1.5482508
O	4.1425205	-1.1158844	-1.8279982
O	2.9789066	0.7101759	-2.4535841
H	2.3266303	1.3807851	-2.1241117
N	1.1387500	0.1077044	-0.3019722
C	1.4695179	2.4980408	-0.5558743
H	2.5313777	2.4805125	-0.3381507
H	1.0306354	3.4747536	-0.7081106
C	-0.8301076	1.5376704	-0.6903433
H	-1.3749894	1.2873302	0.2285249
H	-1.0779688	2.5675354	-0.9530912
H	-1.2023671	0.8811779	-1.4851262
C	1.1371016	-1.9354290	0.8759252
C	0.3135322	-1.1044775	-0.1239700
C	2.5720581	-0.2254132	-0.1803675
C	2.6077416	-1.6159870	0.5137520
H	0.9102262	-1.6076222	1.8968303
H	0.9164060	-3.0048587	0.8081298
H	-0.6774497	-0.8523280	0.2564978
H	0.1871185	-1.6423928	-1.0761429
H	3.0725390	0.5374000	0.4333943
H	3.0257198	-2.3498830	-0.1795332
H	3.2522860	-1.6021643	1.3962826
C	0.6649075	1.3966359	-0.4987228
C	5.5783204	4.2422094	-1.6753120
H	6.0520587	3.5248681	-2.3721452
O	4.9564917	3.8300952	-0.6896634
C	5.7540783	5.6936419	-2.0239247
H	5.3411581	5.8950535	-3.0214101
H	5.2569342	6.3269290	-1.2861090
H	6.8221504	5.9450950	-2.0664293
