31
-0.00340931 (energy)
C	0.3905317	0.2344357	-0.1215921
O	-0.5139100	0.5219135	-0.9037431
O	0.1621512	-0.6485258	0.8998268
H	0.9326725	-0.7819573	1.5099302
N	2.8796965	-0.1308901	0.0480154
C	2.6696079	-0.0648475	2.4644348
H	1.9752283	0.7673839	2.4864534
H	3.0012572	-0.4339358	3.4254468
C	4.2967106	-1.6281317	1.3979686
H	5.2699776	-1.2565315	1.0536582
H	4.4154429	-1.9630480	2.4298733
H	4.0376086	-2.4971005	0.7823397
C	3.4361042	0.7385388	-2.0724429
C	3.5294078	-0.5361894	-1.2151797
C	1.8089817	0.8504020	-0.2179975
C	2.0922619	1.3810943	-1.6514858
H	4.2743677	1.4022881	-1.8317606
H	3.4742811	0.5219454	-3.1441762
H	4.5597045	-0.8512900	-1.0431901
H	2.9911855	-1.3718034	-1.6885006
H	1.8649637	1.6605733	0.5233238
H	1.2733287	1.0826345	-2.3104423
H	2.1382980	2.4729238	-1.6681536
C	3.2378079	-0.5489919	1.3214081
C	4.5121881	3.1150267	2.2658728
H	4.4163607	2.4096325	3.1131148
O	4.3941062	2.7083971	1.1045282
C	4.7860625	4.5440343	2.6427122
H	5.7167610	4.6100466	3.2219269
H	4.8649341	5.1666759	1.7490268
H	3.9834445	4.9247726	3.2882011
