31
-0.00335253 (energy)
C	1.9092190	0.4970209	1.5703580
O	2.2586056	1.2202173	2.5016659
O	2.3332795	-0.8037210	1.5127529
H	2.0440948	-1.2964729	0.7020119
N	0.0000000	0.0000000	0.0000000
C	1.5208814	-1.3344274	-1.3393302
H	2.3515686	-0.6406509	-1.2769615
H	1.6726919	-2.2042276	-1.9639601
C	-0.8505717	-2.0582061	-1.0546803
H	-1.6417587	-1.5959148	-1.6581659
H	-0.4870793	-2.9324754	-1.5974693
H	-1.3057410	-2.4000089	-0.1180741
C	-1.2848806	1.9116640	0.5064205
C	-1.3331918	0.3734409	0.5149715
C	1.0072732	0.9970614	0.4140006
C	0.1882600	2.2466682	0.8435013
H	-1.5463627	2.2793939	-0.4923681
H	-1.9846244	2.3530984	1.2222954
H	-2.1252964	-0.0246867	-0.1209883
H	-1.4875639	-0.0120856	1.5345328
H	1.6640687	1.2265507	-0.4374822
H	0.3332453	2.4176408	1.9129409
H	0.5325716	3.1442621	0.3236324
C	0.2876042	-1.0913919	-0.8066781
C	3.2981434	3.9680585	-1.9559407
H	3.4290836	4.3350802	-0.9202126
O	3.2342381	2.7540502	-2.1797978
C	3.2097462	5.0333237	-3.0125741
H	4.1180443	5.6505407	-3.0033833
H	3.0816921	4.5833234	-3.9993256
H	2.3676188	5.7056585	-2.8013849
