31
-0.00331663 (energy)
C	2.0975351	2.9806392	-0.2553144
O	2.5195680	3.8987734	0.4456395
O	2.9335904	2.3461730	-1.1348253
H	2.4958568	1.6534583	-1.6936354
N	0.4951265	1.0340695	-0.2917004
C	0.8026085	0.8963660	-2.6946308
H	0.7725826	1.9664834	-2.8655227
H	0.8763208	0.2750790	-3.5768612
C	0.5357087	-1.1901462	-1.3515365
H	-0.4638175	-1.5179909	-1.0395265
H	0.7514243	-1.6543003	-2.3154459
H	1.2537749	-1.5730979	-0.6173918
C	-0.6651623	1.5886897	1.6851572
C	0.1765309	0.4746685	1.0378189
C	0.6242606	2.5027990	-0.2124206
C	-0.0531173	2.8975786	1.1299947
H	-1.7099540	1.4863174	1.3703444
H	-0.6367203	1.5487597	2.7781252
H	-0.3702389	-0.4651531	0.9474956
H	1.0922866	0.2826435	1.6178917
H	0.1067308	2.9606868	-1.0677394
H	0.7022165	3.3118342	1.8021677
H	-0.8103163	3.6712090	0.9795468
C	0.6066061	0.3170480	-1.4740854
C	4.3577839	-0.2954538	1.1390065
H	3.8522232	0.1159200	2.0333011
O	3.7707579	-0.3196452	0.0514278
C	5.7570103	-0.7972584	1.3613481
H	5.7577834	-1.5886444	2.1227642
H	6.1771604	-1.1833220	0.4302168
H	6.3919497	0.0123053	1.7451083
