31
-0.00328132 (energy)
C	-1.9092189	-0.4970209	1.5703581
O	-2.2586055	-1.2202172	2.5016661
O	-2.3332794	0.8037211	1.5127530
H	-2.0440947	1.2964729	0.7020120
N	0.0000000	0.0000000	0.0000000
C	-1.5208815	1.3344273	-1.3393302
H	-2.3515686	0.6406508	-1.2769614
H	-1.6726921	2.2042275	-1.9639601
C	0.8505716	2.0582061	-1.0546805
H	1.6417586	1.5959147	-1.6581661
H	0.4870791	2.9324754	-1.5974695
H	1.3057410	2.4000090	-0.1180743
C	1.2848807	-1.9116640	0.5064205
C	1.3331918	-0.3734408	0.5149715
C	-1.0072731	-0.9970614	0.4140007
C	-0.1882599	-2.2466682	0.8435014
H	1.5463628	-2.2793939	-0.4923680
H	1.9846245	-2.3530983	1.2222955
H	2.1252964	0.0246867	-0.1209884
H	1.4875639	0.0120857	1.5345327
H	-1.6640687	-1.2265508	-0.4374820
H	-0.3332451	-2.4176407	1.9129410
H	-0.5325715	-3.1442621	0.3236326
C	-0.2876042	1.0913918	-0.8066782
C	4.7294581	-1.4444637	2.7851042
H	4.5753602	-2.4163969	2.2789594
O	4.2994529	-0.4044267	2.2738012
C	5.4745286	-1.5059837	4.0890073
H	6.4677033	-1.9489123	3.9358236
H	5.5802397	-0.5066232	4.5164186
H	4.9434734	-2.1559821	4.7970297
