31
-0.00327804 (energy)
C	-3.2986564	-0.2794365	-1.5459077
O	-4.1425204	0.4233760	-2.0994116
O	-2.9789064	-1.5065224	-2.0627205
H	-2.3266302	-2.0240026	-1.5237558
N	-1.1387500	-0.2044897	-0.2469240
C	-1.4695179	-2.5375108	0.3320293
H	-2.5313776	-2.4465737	0.5306275
H	-1.0306354	-3.5073884	0.5230295
C	0.8301076	-1.6810489	-0.1227961
H	1.3749894	-1.1315345	0.6550361
H	1.0779688	-2.7386704	-0.0174638
H	1.2023672	-1.3359795	-1.0941814
C	-1.1371017	2.1182924	0.1611446
C	-0.3135322	0.9954690	-0.4942473
C	-2.5720581	0.1501298	-0.2465860
C	-2.6077416	1.6942445	-0.0699314
H	-0.9102263	2.1594249	1.2325981
H	-0.9164060	3.1000402	-0.2683287
H	0.6774497	0.8886537	-0.0504842
H	-0.1871184	1.1752818	-1.5729750
H	-3.0725390	-0.3567612	0.5910589
H	-3.0257198	2.1467636	-0.9724136
H	-3.2522861	1.9830987	0.7641037
C	-0.6649074	-1.4829817	0.0090315
C	4.9598624	0.3729757	-0.1587845
H	4.7587987	1.3727312	-0.5884881
O	4.0207056	-0.3654418	0.1586054
C	6.4117331	0.0157900	-0.0052661
H	6.9148545	0.7490243	0.6391586
H	6.5164063	-0.9829557	0.4238346
H	6.9149207	0.0531066	-0.9805726
