31
-0.00321949 (energy)
C	-1.9092189	0.4970208	-1.5703581
O	-2.2586055	1.2202170	-2.5016662
O	-2.3332794	-0.8037211	-1.5127529
H	-2.0440947	-1.2964729	-0.7020119
N	0.0000000	0.0000000	0.0000000
C	-1.5208815	-1.3344272	1.3393303
H	-2.3515686	-0.6406507	1.2769614
H	-1.6726921	-2.2042274	1.9639603
C	0.8505716	-2.0582060	1.0546806
H	1.6417586	-1.5959146	1.6581662
H	0.4870791	-2.9324753	1.5974696
H	1.3057410	-2.4000090	0.1180744
C	1.2848807	1.9116640	-0.5064206
C	1.3331918	0.3734408	-0.5149715
C	-1.0072731	0.9970614	-0.4140008
C	-0.1882599	2.2466681	-0.8435015
H	1.5463628	2.2793940	0.4923679
H	1.9846245	2.3530983	-1.2222956
H	2.1252964	-0.0246867	0.1209884
H	1.4875639	-0.0120858	-1.5345327
H	-1.6640687	1.2265508	0.4374820
H	-0.3332451	2.4176406	-1.9129412
H	-0.5325715	3.1442621	-0.3236328
C	-0.2876042	-1.0913918	0.8066782
C	-3.7349661	2.0070050	-6.6977324
H	-3.9450588	0.9897354	-7.0793165
O	-4.6018563	2.8855976	-6.7654712
C	-2.3630968	2.2090128	-6.1178654
H	-1.5974311	1.9850338	-6.8726080
H	-2.2436571	3.2364013	-5.7674604
H	-2.1993472	1.5132904	-5.2842169
