31
-0.00484903 (energy)
C	2.8342612	-1.7122464	1.1135655
O	3.7705643	-2.4863030	1.3048544
O	1.6049164	-1.9715151	1.6581446
H	0.8983289	-1.3211187	1.4102498
N	2.2491991	0.7226854	0.8186415
C	0.0509815	0.0446581	0.0468253
H	0.4038919	-0.7778180	-0.5649299
H	-1.0109200	0.2460818	0.0073896
C	0.3021741	2.0977703	1.4433578
H	0.6342053	3.0370757	0.9836342
H	-0.7880621	2.0740149	1.3996061
H	0.6033657	2.1203719	2.4969290
C	4.4560434	1.5117769	0.5559399
C	3.2041737	1.6641730	1.4380596
C	2.9671598	-0.4342883	0.2476151
C	4.4503895	0.0196790	0.1441070
H	4.3621626	2.1565958	-0.3252933
H	5.3724507	1.7927320	1.0834287
H	2.8103432	2.6816539	1.4348330
H	3.4183367	1.3841446	2.4809809
H	2.5531503	-0.6665851	-0.7442029
H	5.0579323	-0.5912376	0.8161384
H	4.8403012	-0.1269312	-0.8663203
C	0.8766286	0.8984499	0.7199549
C	2.7224960	-2.8223424	-3.5858063
H	2.9314211	-3.5253549	-2.7571287
O	2.7128564	-1.6039600	-3.3773274
C	2.4642801	-3.4582460	-4.9229784
H	1.6063270	-4.1406211	-4.8571945
H	2.2685238	-2.6941598	-5.6782456
H	3.3284879	-4.0640841	-5.2261589
