31
-0.0048485 (energy)
C	-1.2312352	-0.8180593	-2.0427947
O	-1.1756366	-0.8804097	-3.2697583
O	-1.8003935	-1.8373559	-1.3271353
H	-1.8468570	-1.6790536	-0.3491197
N	0.0000000	0.0000000	0.0000000
C	-2.0157118	-0.3746084	1.2977505
H	-2.6951011	0.0256966	0.5538129
H	-2.4608666	-0.6754110	2.2364285
C	0.2195437	-0.8342059	2.3082323
H	0.8231376	-0.0080414	2.7044796
H	-0.3987466	-1.2142456	3.1233276
H	0.9082991	-1.6290938	1.9999975
C	1.5937755	1.3125029	-1.1397610
C	1.4619834	0.1236247	-0.1713928
C	-0.6968358	0.3949084	-1.2404009
C	0.3569999	1.1890316	-2.0623310
H	1.5615001	2.2500322	-0.5730388
H	2.5330354	1.2893497	-1.7003298
H	1.9553526	0.3049520	0.7846864
H	1.8896284	-0.7919672	-0.6081740
H	-1.5608379	1.0263147	-0.9876260
H	0.5844696	0.6375560	-2.9778012
H	-0.0286312	2.1667727	-2.3619973
C	-0.6571895	-0.3745099	1.1629386
C	2.4120102	0.0737466	-5.2758996
H	2.3742547	-1.0148920	-5.0809035
O	2.9509216	0.8309854	-4.4609297
C	1.7770965	0.5221087	-6.5623421
H	0.7189560	0.2289511	-6.5834161
H	1.8601347	1.6054219	-6.6724053
H	2.2602834	0.0263658	-7.4147403
