31
-0.0045517 (energy)
C	-0.3183338	-0.3422278	0.0616721
O	0.4829581	-0.6865509	-0.8053870
O	-0.1905850	0.8771945	0.6713972
H	-0.8498265	1.0491964	1.3921948
N	-2.7365878	-0.4971355	0.7589684
C	-2.1063754	0.3625096	2.9387447
H	-1.2036012	-0.2309785	3.0283409
H	-2.3630043	0.9713489	3.7950261
C	-4.2807701	1.0358984	1.9154041
H	-5.1441552	0.3607796	1.9670375
H	-4.3150775	1.6862034	2.7912008
H	-4.3999596	1.6577620	1.0207986
C	-3.3645364	-2.1736070	-0.7762720
C	-3.6831847	-0.7292440	-0.3510469
C	-1.4852790	-1.2470501	0.5309742
C	-1.8394261	-2.3082663	-0.5484565
H	-3.9144860	-2.8723502	-0.1355769
H	-3.6478428	-2.3730675	-1.8140270
H	-4.7152672	-0.6080741	-0.0186258
H	-3.5058712	-0.0248097	-1.1782705
H	-1.1711401	-1.7255555	1.4698129
H	-1.2709720	-2.0959348	-1.4571527
H	-1.5621383	-3.3137409	-0.2219275
C	-2.9791805	0.2631935	1.8937066
C	3.7602321	2.3551427	0.7560662
H	3.8911723	3.0685985	-0.0796480
O	3.6963270	2.7682811	1.9193568
C	3.6718349	0.9074387	0.3618365
H	4.5801331	0.6067895	-0.1772846
H	3.5437810	0.2778871	1.2449241
H	2.8297075	0.7541663	-0.3260170
