31
-0.00421941 (energy)
C	0.5458982	1.9690741	1.1819324
O	0.0114923	3.0667819	1.0340589
O	1.1381344	1.6471020	2.3738491
H	1.5870232	0.7627460	2.3859538
N	0.3787970	-0.4653318	0.5463885
C	2.6251472	-0.7873936	1.4053233
H	3.0293498	0.1274247	0.9870116
H	3.3300627	-1.4302471	1.9148278
C	0.9078235	-2.5727251	1.7087395
H	0.6751099	-3.2565388	0.8828288
H	1.7061387	-3.0252999	2.2994697
H	0.0140399	-2.4984232	2.3387154
C	-1.2447863	-0.2033163	-1.1439264
C	-0.9827961	-0.9170548	0.1941603
C	0.6066454	0.9080549	0.0544321
C	-0.5074238	1.1502964	-1.0024215
H	-0.8164819	-0.7933726	-1.9621964
H	-2.3127148	-0.0746911	-1.3438432
H	-1.0251276	-2.0036329	0.1050751
H	-1.7136975	-0.6082051	0.9572865
H	1.6056792	0.9709614	-0.4005876
H	-1.1715485	1.9411721	-0.6454797
H	-0.0858516	1.4873975	-1.9527523
C	1.3471523	-1.2185321	1.1941224
C	2.4257807	5.6365011	-0.4262474
H	1.7422814	5.1309619	0.2821604
O	3.3472202	5.0051992	-0.9557939
C	2.1413897	7.0918837	-0.6713213
H	2.1882478	7.6500369	0.2733037
H	2.8609001	7.5080043	-1.3796469
H	1.1231927	7.2168923	-1.0630625
