31
-0.00420195 (energy)
C	-2.0975349	-1.7114281	2.4536524
O	-2.5195678	-1.5634511	3.5992569
O	-2.9335903	-2.1558739	1.4644332
H	-2.4958567	-2.2934604	0.5851197
N	-0.4951264	-0.7696546	0.7496804
C	-0.8026084	-2.7818018	-0.5710392
H	-0.7725825	-3.4648571	0.2702638
H	-0.8763208	-3.2351924	-1.5502047
C	-0.5357088	-0.5753921	-1.7064650
H	0.4638174	-0.1412611	-1.8343819
H	-0.7514243	-1.1780852	-2.5903888
H	-1.2537750	0.2518717	-1.6710386
C	0.6651624	0.6650444	2.2184241
C	-0.1765309	0.6614434	0.9299844
C	-0.6242605	-1.4353608	2.0612774
C	0.0531174	-0.4701847	3.0743741
H	1.7099541	0.4435947	1.9723607
H	0.6367203	1.6315476	2.7303276
H	0.3702389	1.0531318	0.0709133
H	-1.0922866	1.2598137	1.0537222
H	-0.1067306	-2.4050326	2.0301606
H	-0.7022164	-0.0951936	3.7692165
H	0.8103165	-0.9872915	3.6691337
C	-0.6066060	-1.4351195	-0.4624708
C	3.4011152	-2.0188518	-0.0749640
H	3.8748535	-1.9172523	0.9199392
O	2.7792865	-1.0695914	-0.5651128
C	3.5768732	-3.3547977	-0.7408739
H	3.1639530	-4.1502591	-0.1062206
H	3.0797291	-3.3656650	-1.7131426
H	4.6449453	-3.5747433	-0.8699444
