31
-0.00420167 (energy)
C	-0.2078855	0.3157926	-0.2816352
O	0.0891224	-0.6796571	-0.9398788
O	0.0818719	0.3679951	1.0556721
H	-0.2385454	1.1862113	1.5156594
N	-0.4120648	2.8267273	-0.3897499
C	-1.6217632	2.7642331	1.7127026
H	-2.2218114	1.8967098	1.4624984
H	-1.8377756	3.2349386	2.6621953
C	-0.0458985	4.6403333	1.2377608
H	-0.3622909	5.4746167	0.5992061
H	-0.2889904	4.9011136	2.2692613
H	1.0433482	4.5532438	1.1529289
C	-0.2060709	3.0245354	-2.7307492
C	0.4427831	3.4701070	-1.4082545
C	-0.9320647	1.5405117	-0.8950980
C	-0.7280114	1.5975750	-2.4351879
H	-1.0362376	3.6972073	-2.9747012
H	0.4997510	3.0429113	-3.5664885
H	0.4479250	4.5545194	-1.2882399
H	1.4819783	3.1137107	-1.3373914
H	-1.9977849	1.4525736	-0.6390198
H	-0.0067856	0.8306984	-2.7279115
H	-1.6589853	1.3846455	-2.9666364
C	-0.7446878	3.3548783	0.8492015
C	3.0655518	-2.5927105	-1.7566171
H	2.4912818	-3.3863463	-1.2418948
O	3.2178021	-2.6339185	-2.9826407
C	3.6157292	-1.5131352	-0.8672914
H	4.2802102	-1.9500223	-0.1099000
H	4.1652098	-0.7757432	-1.4562742
H	2.7992510	-1.0181628	-0.3249087
