31
-0.00885282 (energy)
C	1.8962758	-1.6029247	0.2251519
O	1.3986938	-2.5840707	-0.3111038
O	3.2738951	-1.5103325	0.3546362
H	3.5644779	-0.6658140	0.7553119
N	0.0000000	0.0000000	0.0000000
C	1.5023573	0.8774842	-1.6832961
H	2.4047895	0.5487299	-1.1847628
H	1.6396369	1.3945847	-2.6236793
C	0.2535936	0.6381782	-1.2167136
C	-0.9649546	1.0794552	-1.9970759
H	-1.5593215	1.8184623	-1.4443813
H	-0.6580860	1.5343511	-2.9408013
H	-1.6228919	0.2326801	-2.2280473
C	-1.0686203	-0.4076336	2.0532947
C	-1.3293285	-0.3384865	0.5398857
C	1.0794397	-0.4627737	0.8637204
C	0.3556780	-0.9972365	2.1411713
H	-1.0955987	0.6009160	2.4817482
H	-1.8037464	-1.0230933	2.5801666
H	-2.0649003	0.4265647	0.2817066
H	-1.6880683	-1.3050753	0.1549985
H	1.7496176	0.3806578	1.1001037
H	0.3096406	-2.0904428	2.0991141
H	0.8827896	-0.7126813	3.0558548
C	4.5024631	0.8185705	3.9951745
H	5.5374736	0.6905136	3.6251239
O	3.5491319	0.7271625	3.2136271
C	4.3723235	1.1003192	5.4658068
H	4.9211789	2.0155601	5.7249181
H	3.3217125	1.2116396	5.7422145
H	4.8227414	0.2852579	6.0477107
