31
-0.00431024 (energy)
C	-0.1313052	0.4135386	-0.1972997
O	1.0907900	0.3772713	-0.1427687
O	-0.8762435	-0.6559221	0.2765096
H	-1.8415787	-0.5015437	0.2266496
N	-0.4639531	2.8734765	-0.4296224
C	-1.1532726	2.5652225	1.8704559
H	-1.4993846	1.5496336	1.7297992
H	-1.2445021	2.9646514	2.8718014
C	-0.5915400	3.3126246	0.8905456
C	-0.0785488	4.7071306	1.1746996
H	-0.6242472	5.4684237	0.6024052
H	-0.1950747	4.9377806	2.2353308
H	0.9846254	4.8036323	0.9224988
C	-0.4936207	3.0181388	-2.7753262
C	0.1831181	3.6118782	-1.5292704
C	-0.9312227	1.5579259	-0.8495609
C	-0.6997039	1.5360489	-2.3946443
H	-1.4581711	3.5104619	-2.9448343
H	0.1123195	3.1321499	-3.6790037
H	0.0094515	4.6862832	-1.4369699
H	1.2697968	3.4389668	-1.5481717
H	-1.9994311	1.4485892	-0.5978299
H	0.2080696	0.9649390	-2.6154812
H	-1.5343888	1.0685542	-2.9239968
C	1.8487966	-3.8218969	0.7239934
H	1.4591726	-4.0580422	-0.2844764
O	1.3536169	-4.3590614	1.7211210
C	2.9814142	-2.8346593	0.7642103
H	2.6703615	-1.8844595	0.3098828
H	3.3014916	-2.6618047	1.7938940
H	3.8279508	-3.2068909	0.1720678
