31
-0.00424275 (energy)
C	0.1832159	0.1224920	0.4226228
O	1.0903504	0.0750872	-0.3975389
O	-1.1173184	-0.1584090	0.0316246
H	-1.7535179	-0.1361140	0.7752267
N	1.5115197	-0.0758784	2.5231420
C	0.5316065	-2.2874856	2.4277178
H	-0.3607211	-1.9726106	1.9027379
H	0.6027988	-3.3429785	2.6544896
C	1.5444172	-1.4522474	2.7608378
C	2.7884276	-1.9742379	3.4453192
H	2.9161927	-1.5428350	4.4465396
H	2.7267836	-3.0588077	3.5531369
H	3.6921044	-1.7426260	2.8682737
C	1.8421924	2.2090685	2.9633768
C	2.5973713	0.8788413	2.8105453
C	0.3676708	0.5661233	1.8868983
C	0.7036365	2.0915323	1.9271072
H	1.4338757	2.2905105	3.9773379
H	2.4794087	3.0792192	2.7801058
H	3.1341547	0.6013746	3.7204362
H	3.3224684	0.9274811	1.9841105
H	-0.5479348	0.3372027	2.4575593
H	1.0621556	2.4081863	0.9421287
H	-0.1726181	2.6940223	2.1813667
C	3.4202222	-3.9220255	-0.3351159
H	2.8142365	-3.9313776	0.5907765
O	3.7733780	-4.9862567	-0.8554092
C	3.7565421	-2.5596139	-0.8734481
H	4.3110946	-1.9827630	-0.1212770
H	4.3533984	-2.6449873	-1.7839703
H	2.8360618	-2.0000569	-1.0865801
