31
-0.00415318 (energy)
C	-1.8962757	-0.9964496	1.2755977
O	-1.3986936	-1.0226114	2.3934229
O	-3.2738950	-1.0622902	1.1306684
H	-3.5644778	-0.9870264	0.1989561
N	0.0000000	0.0000000	0.0000000
C	-1.5023574	1.8965193	0.0817243
H	-2.4047895	1.3003996	0.1171674
H	-1.6396370	2.9694652	0.1040937
C	-0.2535937	1.3727939	0.0556782
C	0.9649545	2.2692461	0.0637021
H	1.5593214	2.1601021	-0.8526441
H	0.6580859	3.3139842	0.1416133
H	1.6228918	2.0458858	0.9125165
C	1.0686203	-1.9820222	-0.6736262
C	1.3293285	-0.6367980	0.0231951
C	-1.0794397	-0.9793907	-0.0310863
C	-0.3556779	-2.3529270	-0.2069533
H	1.0955987	-1.8487991	-1.7612825
H	1.8037465	-2.7460364	-0.4040584
H	2.0649003	-0.0306827	-0.5102692
H	1.6880683	-0.7867702	1.0527291
H	-1.7496176	-0.7623890	-0.8797110
H	-0.3096405	-2.8631075	0.7608198
H	-0.8827896	-3.0027886	-0.9107269
C	3.3276590	-2.4973216	3.6059335
H	3.4234864	-1.5446941	4.1608215
O	3.4457410	-2.5124181	2.3755511
C	3.0537844	-3.7112628	4.4487962
H	2.1230859	-3.5751909	5.0156575
H	2.9749129	-4.6020129	3.8219627
H	3.8564024	-3.8482696	5.1855776
