31
-0.00413978 (energy)
C	-0.4480173	-0.0314575	0.1596035
O	0.2021621	-0.9521653	0.6364362
O	0.1628762	0.8784770	-0.6901040
H	-0.4589541	1.5440446	-1.0486256
N	-2.7472824	-0.9476275	0.4594959
C	-2.4831476	-1.2320442	-1.9300401
H	-1.8111923	-0.3925170	-2.0511550
H	-2.7188365	-1.7864056	-2.8287576
C	-2.9870795	-1.6281237	-0.7369135
C	-3.8771821	-2.8471615	-0.6358446
H	-4.8853780	-2.5898596	-0.2862568
H	-3.9726574	-3.3206582	-1.6148244
H	-3.4658251	-3.5888513	0.0598127
C	-3.2382500	-0.0209702	2.5629194
C	-3.2188756	-1.3531355	1.7960314
C	-1.9220775	0.2532455	0.5074913
C	-2.0200155	0.7354622	1.9904739
H	-4.1659033	0.5204744	2.3443571
H	-3.1684148	-0.1569175	3.6461721
H	-4.2081546	-1.8128418	1.7410519
H	-2.5309080	-2.0715104	2.2669498
H	-2.3250756	1.0054945	-0.1911546
H	-1.1122573	0.4398949	2.5267605
H	-2.1182523	1.8222736	2.0586985
C	4.0942875	1.6296165	-2.5200504
H	4.0016587	0.9383083	-3.3791754
O	4.3401940	2.8259049	-2.7109326
C	3.9021898	1.0065939	-1.1657906
H	4.6355936	0.2037679	-1.0120506
H	4.0102607	1.7578224	-0.3805816
H	2.9081919	0.5445415	-1.1002986
