31
-0.00403006 (energy)
C	-0.4576100	-0.0305716	-0.1297722
O	-0.2008965	1.1387140	0.1245404
O	0.5312716	-0.9960052	-0.0147698
H	0.2053931	-1.9008808	-0.1969625
N	-2.9408649	0.0335463	0.0829644
C	-2.3682683	-1.1392449	2.1218944
H	-1.4674585	-1.5871033	1.7231925
H	-2.6002544	-1.3734748	3.1523690
C	-3.1631642	-0.2944426	1.4227327
C	-4.3779476	0.3388507	2.0644426
H	-5.3089125	0.0297249	1.5718775
H	-4.4404984	0.0448532	3.1139039
H	-4.3300501	1.4339267	2.0223490
C	-3.4874560	0.4955699	-2.1557643
C	-3.7326894	0.9839016	-0.7189102
C	-1.8179373	-0.5172352	-0.6660589
C	-2.0207421	0.0143847	-2.1212609
H	-4.1614137	-0.3378068	-2.3854092
H	-3.6473469	1.2803749	-2.9009563
H	-4.7890697	0.9454919	-0.4439357
H	-3.3795246	2.0177001	-0.5860139
H	-1.8543413	-1.6188737	-0.6278553
H	-1.3469854	0.8601480	-2.2936691
H	-1.8028101	-0.7535224	-2.8684479
C	3.8542398	1.7359363	-1.7499811
H	4.4285097	2.5295722	-1.2352589
O	3.7019896	1.7771442	-2.9760047
C	3.3040624	0.6563612	-0.8606552
H	2.6395815	1.0932484	-0.1032640
H	2.7545819	-0.0810310	-1.4496379
H	4.1205407	0.1613889	-0.3182724
