31
-0.00395384 (energy)
C	-2.4924497	0.0462550	0.0384428
O	-2.6725107	0.3644630	1.2064014
O	-3.5036073	0.2321836	-0.8922372
H	-3.2363305	-0.0128547	-1.8014733
N	0.0000000	0.0000000	0.0000000
C	-0.4075176	2.0478476	-1.2250679
H	-1.3625753	1.7310305	-1.6231764
H	-0.0803793	3.0401032	-1.5060811
C	0.3455253	1.2976033	-0.3857603
C	1.6454288	1.8292272	0.1765363
H	2.5068569	1.2320316	-0.1493067
H	1.8036506	2.8561114	-0.1584128
H	1.6391912	1.8285219	1.2734492
C	0.3313828	-2.2671650	0.5237193
C	0.7437937	-0.8485342	0.9486436
C	-1.2162524	-0.6451788	-0.4794132
C	-1.1427333	-2.0952804	0.0977891
H	0.9426603	-2.5934300	-0.3256119
H	0.4461136	-2.9987005	1.3290067
H	1.8203865	-0.6870152	0.8598444
H	0.4496928	-0.6453871	1.9894905
H	-1.2221124	-0.6473539	-1.5822972
H	-1.7947962	-2.1682542	0.9744173
H	-1.4684905	-2.8404858	-0.6329745
C	1.1933654	2.6694931	4.6694463
H	1.7412358	3.6099036	4.8695684
O	1.7491341	1.7448989	4.0659077
C	-0.2209752	2.6253468	5.1761710
H	-0.8075209	3.4395055	4.7299012
H	-0.6832838	1.6655477	4.9361020
H	-0.2377301	2.7815714	6.2629674
