31
-0.00386969 (energy)
C	-1.9793561	0.6586100	1.7176161
O	-1.7019869	1.8300413	1.9381170
O	-2.8649142	-0.0102382	2.5492430
H	-3.0497652	-0.9251471	2.2543487
N	-1.3078245	0.5167597	-0.6792249
C	-3.7174922	0.5285005	-0.9114006
H	-3.9065293	0.0572023	0.0441838
H	-4.5906533	0.7844963	-1.4967338
C	-2.4804113	0.8386662	-1.3672577
C	-2.2955932	1.5491197	-2.6900006
H	-1.7415775	0.9341322	-3.4109248
H	-3.2686214	1.7823429	-3.1265085
H	-1.7455951	2.4902693	-2.5675389
C	0.9102992	-0.2065841	-0.3949101
C	0.0627558	0.8707137	-1.0907955
C	-1.3355241	-0.1835998	0.5990911
C	0.1686419	-0.4336652	0.9401397
H	0.9125643	-1.1234524	-0.9955929
H	1.9477100	0.1057828	-0.2432502
H	0.1669880	0.8404699	-2.1776472
H	0.3412188	1.8780184	-0.7459451
H	-1.8893163	-1.1309357	0.4883612
H	0.4983990	0.3034960	1.6796274
H	0.3303037	-1.4313869	1.3571301
C	4.2269161	1.0780368	2.5878814
H	4.7006543	1.8888485	2.0024419
O	3.6050874	0.1789252	2.0108722
C	4.4026740	1.1693149	4.0777993
H	3.9897538	2.1166716	4.4493625
H	3.9055300	0.3327392	4.5733451
H	5.4707461	1.1675095	4.3328131
