31
-0.0055517 (energy)
C	1.2286407	-0.7949306	2.0185267
O	0.4624418	-1.6736993	2.3906964
O	2.5466765	-0.7990656	2.4497333
H	3.0803925	-0.0795223	2.0552774
N	0.0000000	0.0000000	0.0000000
C	1.8072849	-1.2186308	-1.0531866
H	2.5149529	-1.0483665	-0.2524278
H	2.1663079	-1.8044071	-1.8889664
C	0.5255159	-0.7816018	-1.0319422
C	-0.4245654	-1.1059925	-2.1636076
H	-0.7669975	-0.2013456	-2.6824804
H	0.0730656	-1.7443520	-2.8961216
H	-1.3143209	-1.6360700	-1.8022067
C	-1.2634230	1.7150280	0.9932648
C	-1.3952351	0.4626228	0.1116392
C	0.8071708	0.4028404	1.1452325
C	-0.1288320	1.3420100	1.9718046
H	-0.9745170	2.5745582	0.3774616
H	-2.1928089	1.9639649	1.5139062
H	-1.8134252	0.6911390	-0.8711746
H	-2.0350516	-0.2937734	0.5908321
H	1.7069810	0.9345883	0.7931273
H	-0.5378134	0.7864252	2.8221270
H	0.4080118	2.2122623	2.3590045
C	6.1056562	-1.6823372	3.4386573
H	5.9515584	-2.6542705	2.9325127
O	5.6756509	-0.6423003	2.9273543
C	6.8507270	-1.7438571	4.7425603
H	7.8439017	-2.1867855	4.5893765
H	6.9564380	-0.7444965	5.1699716
H	6.3196719	-2.3938554	5.4505829
