31
-0.00356548 (energy)
C	-1.8962757	0.9964495	-1.2755977
O	-1.3986936	1.0226113	-2.3934229
O	-3.2738950	1.0622902	-1.1306685
H	-3.5644778	0.9870264	-0.1989561
N	0.0000000	0.0000000	0.0000000
C	-1.5023574	-1.8965193	-0.0817242
H	-2.4047895	-1.3003996	-0.1171673
H	-1.6396370	-2.9694652	-0.1040935
C	-0.2535937	-1.3727939	-0.0556781
C	0.9649545	-2.2692461	-0.0637019
H	1.5593214	-2.1601020	0.8526442
H	0.6580859	-3.3139842	-0.1416131
H	1.6228918	-2.0458858	-0.9125164
C	1.0686203	1.9820223	0.6736261
C	1.3293285	0.6367980	-0.0231951
C	-1.0794397	0.9793907	0.0310862
C	-0.3556779	2.3529270	0.2069532
H	1.0955987	1.8487992	1.7612824
H	1.8037465	2.7460364	0.4040582
H	2.0649003	0.0306827	0.5102692
H	1.6880683	0.7867701	-1.0527291
H	-1.7496176	0.7623890	0.8797110
H	-0.3096405	2.8631075	-0.7608199
H	-0.8827896	3.0027887	0.9107268
C	5.8724755	0.5439390	0.4696640
H	6.0551186	-0.3305612	-0.1833856
O	4.7155064	0.9048825	0.7128809
C	7.1040321	1.2179449	1.0063784
H	7.7370851	1.5628840	0.1779413
H	6.8312068	2.0662168	1.6377086
H	7.7029566	0.5035135	1.5866287
