31
-0.00347042 (energy)
C	1.2761915	2.3343152	0.4734244
O	2.4018431	1.9253768	0.7253840
O	0.9235036	3.6344871	0.8025728
H	0.0178517	3.8695676	0.5149574
N	0.6121245	0.6772877	-1.2670346
C	1.0022413	2.6213979	-2.6558421
H	0.7413949	3.3389201	-1.8889525
H	1.3020429	3.0330151	-3.6104359
C	1.0102815	1.2809039	-2.4624808
C	1.4410165	0.3395945	-3.5656374
H	0.6250841	-0.3245931	-3.8786612
H	1.7615246	0.9111308	-4.4387565
H	2.2792231	-0.2934767	-3.2495866
C	-0.4259602	-0.9119768	0.1188774
C	0.6470241	-0.7667003	-0.9723403
C	0.1562982	1.4615086	-0.1257273
C	-0.2890997	0.3964264	0.9271654
H	-1.4182977	-0.9786075	-0.3418819
H	-0.2772214	-1.7994165	0.7410692
H	0.4137300	-1.3552799	-1.8623817
H	1.6345732	-1.0800314	-0.6012653
H	-0.6852429	2.1047393	-0.4330624
H	0.4950314	0.2868266	1.6835480
H	-1.2134992	0.6873765	1.4334240
C	1.0750242	-3.7873743	-4.8312086
H	1.8971425	-4.3410147	-5.3233333
O	1.2507527	-3.2756868	-3.7197647
C	-0.2121089	-3.7199755	-5.6043994
H	-0.5841149	-4.7331131	-5.8074029
H	-0.9640675	-3.1577093	-5.0467331
H	-0.0425671	-3.2434576	-6.5790786
