31
-0.00334689 (energy)
C	-1.8962757	1.5832630	-0.3366592
O	-1.3986936	2.3218283	-1.1761465
O	-3.2738950	1.5405412	-0.1833154
H	-3.5644778	0.8839926	0.4820391
N	0.0000000	0.0000000	0.0000000
C	-1.5023574	-1.4002868	-1.2816634
H	-2.4047895	-0.9208502	-0.9256361
H	-1.6396370	-2.2078323	-1.9884757
C	-0.2535937	-1.0158320	-0.9250668
C	0.9649545	-1.6973966	-1.5074418
H	1.5593214	-2.2028033	-0.7353234
H	0.6580859	-2.4476321	-2.2386699
H	1.6228918	-0.9806852	-2.0140982
C	1.0686203	1.0853187	1.7900469
C	1.3293285	0.5027251	0.3915574
C	-1.0794397	0.7302750	0.6533536
C	-0.3556779	1.6694198	1.6709677
H	1.0955987	0.2841319	2.5376058
H	1.8037465	1.8438624	2.0746447
H	2.0649003	-0.3044904	0.4106114
H	1.6880683	1.2793821	-0.3007112
H	-1.7496176	0.0185566	1.1639519
H	-0.3096405	2.6823132	1.2575481
H	-0.8827896	1.7148657	2.6278125
C	5.3452488	-0.2400794	-1.4146010
H	4.7847299	-0.4663305	-2.3415378
O	4.7371804	-0.0083621	-0.3636148
C	6.8423165	-0.2412108	-1.5482612
H	7.1548223	0.4957749	-2.3000851
H	7.3118630	-0.0096414	-0.5898884
H	7.1890759	-1.2212447	-1.9019629
