31
-0.00330511 (energy)
C	2.4924497	0.0303172	-0.0519447
O	2.6725106	-0.0701306	-1.2583003
O	3.5036073	0.5233443	0.7590171
H	3.2363306	0.6040608	1.6972275
N	0.0000000	0.0000000	0.0000000
C	0.4075177	2.3433452	0.4507819
H	1.3625755	2.1817957	0.9332393
H	0.0803794	3.3718727	0.3754764
C	-0.3455252	1.3512860	-0.0813104
C	-1.6454287	1.6585324	-0.7915225
H	-2.5068569	1.2087970	-0.2810773
H	-1.8036506	2.7380472	-0.8279885
H	-1.6391913	1.2827031	-1.8220422
C	-0.3313829	-2.3095607	0.2832812
C	-0.7437938	-1.1218166	-0.6012175
C	1.2162524	-0.4423007	0.6711652
C	1.1427332	-2.0023653	0.6247366
H	-0.9426603	-2.3256611	1.1929807
H	-0.4461137	-3.2724038	-0.2232415
H	-1.8203865	-0.9396673	-0.5730162
H	-0.4496929	-1.2869115	-1.6487740
H	1.2221124	-0.0671360	1.7082811
H	1.7947961	-2.3707629	-0.1740660
H	1.4684905	-2.4526934	1.5663050
C	4.5383582	-2.1313067	4.0324949
H	3.9640882	-2.9738872	3.6025472
O	4.6906085	-1.0901431	3.3837960
C	5.0885355	-2.3616979	5.4120974
H	5.7530164	-3.2360615	5.4124377
H	5.6380160	-1.4829278	5.7562064
H	4.2720572	-2.5839289	6.1119473
