31
-0.00329386 (energy)
C	-2.4924497	-0.0107228	-0.0591810
O	-2.6725107	0.4962650	-1.1584294
O	-3.5036073	-0.7513820	0.5342487
H	-3.2363305	-1.1481174	1.3882715
N	0.0000000	0.0000000	0.0000000
C	-0.4075176	-2.3562008	-0.3778745
H	-1.3625753	-2.3694040	0.1307404
H	-0.0803793	-3.2969445	-0.8004154
C	0.3455253	-1.2419838	-0.5385737
C	1.6454288	-1.2877941	-1.3110392
H	2.5068569	-1.0397635	-0.6775590
H	1.8036506	-2.2897342	-1.7145217
H	1.6391912	-0.5821718	-2.1508699
C	0.3313828	2.0733895	1.0561132
C	0.7437937	1.2597912	-0.1812760
C	-1.2162524	0.1860748	0.7819647
C	-1.1427333	1.6679356	1.2719094
H	0.9426603	1.7773835	1.9164577
H	0.4461136	3.1514069	0.9094491
H	1.8203865	1.0789815	-0.2170742
H	0.4496928	1.7732150	-1.1091914
H	-1.2221124	-0.5211791	1.6282211
H	-1.7947962	2.2873225	0.6472798
H	-1.4684905	1.7690704	2.3107155
C	3.1989726	3.5531999	-2.5188525
H	3.2948000	2.8478056	-3.3660944
O	3.3170546	3.1465704	-1.3575079
C	2.9250980	4.9822075	-2.8956921
H	1.9943995	5.0482196	-3.4749067
H	2.8462265	5.6048491	-2.0020067
H	3.7277160	5.3629457	-3.5411811
