31
-0.00329004 (energy)
C	-2.4924497	0.0601440	-0.0002830
O	-2.6725106	1.0546549	0.6898850
O	-3.5036074	-0.3956560	-0.8327377
H	-3.2363307	-1.1678120	-1.3717454
N	0.0000000	0.0000000	0.0000000
C	-0.4075178	0.7812836	-2.2547876
H	-1.3625756	0.2826885	-2.3561101
H	-0.0803795	1.3607636	-3.1078659
C	0.3455252	0.7460597	-1.1295930
C	1.6454287	1.5147445	-1.0405703
H	2.5068569	0.8478183	-0.9063105
H	1.8036505	2.0860823	-1.9572246
H	1.6391913	2.2192863	-0.1998329
C	0.3313830	-1.4001087	1.8584979
C	0.7437938	-0.0402384	1.2721304
C	-1.2162524	-0.8023964	0.0474613
C	-1.1427332	-1.5422201	1.4217313
H	0.9426604	-2.1959818	1.4175916
H	0.4461138	-1.4428685	2.9456058
H	1.8203866	0.0264132	1.1002837
H	0.4496930	0.7844248	1.9388848
H	-1.2221125	-1.5129829	-0.7959987
H	-1.7947960	-1.0346354	2.1401742
H	-1.4684905	-2.5828063	1.3409429
C	4.6579928	-1.9343302	1.5103998
H	3.8358745	-2.6747749	1.5315161
O	4.4822645	-0.8279325	0.9878906
C	5.9451258	-2.3796970	2.1460217
H	6.3171319	-3.2862937	1.6502993
H	6.6970845	-1.5905151	2.0802422
H	5.7755840	-2.6411748	3.1989691
