31
-0.00325594 (energy)
C	1.2286407	0.0566137	-2.1686769
O	0.4624418	0.7550968	-2.8189586
O	2.5466765	-0.0869819	-2.5752929
H	3.0803925	-0.6282196	-1.9585273
N	0.0000000	0.0000000	0.0000000
C	1.8072849	1.5053494	0.5728755
H	2.5149529	1.0714776	-0.1213579
H	2.1663079	2.3416525	1.1579044
C	0.5255159	1.0874104	0.7023850
C	-0.4245654	1.7792903	1.6548545
H	-0.7669975	1.1066651	2.4518428
H	0.0730656	2.6296865	2.1248607
H	-1.3143209	2.1537938	1.1339515
C	-1.2634230	-1.9513157	-0.3467896
C	-1.3952351	-0.4729061	0.0533197
C	0.8071708	-0.7702387	-0.9383870
C	-0.1288320	-1.9354737	-1.3938959
H	-0.9745170	-2.5483929	0.5258527
H	-2.1928089	-2.3633097	-0.7508911
H	-1.8134252	-0.3514991	1.0550198
H	-2.0350516	0.0739803	-0.6556770
H	1.7069810	-1.1494912	-0.4256479
H	-0.5378134	-1.7042221	-2.3829587
H	0.4080118	-2.8856735	-1.4601011
C	0.0907510	-6.1691443	1.1417261
H	0.9431185	-6.8721569	1.0798734
O	0.2943889	-4.9507619	1.1874213
C	-1.2709453	-6.8050478	1.1638216
H	-1.3551429	-7.4874229	2.0201637
H	-2.0487309	-6.0409615	1.2254531
H	-1.4194518	-7.4108858	0.2600963
