31
-0.00549348 (energy)
C	-0.4480173	-0.1539494	0.0525588
O	0.2021621	-1.0272526	-0.5063813
O	0.1628762	1.0368861	0.4157314
H	-0.4589541	1.6801588	0.8128690
N	-2.7472824	-0.8717489	-0.5909216
C	-2.4831476	1.0554416	-2.0320016
H	-1.8111923	1.5800938	-1.3655072
H	-2.7188365	1.5565731	-2.9614515
C	-2.9870795	-0.1758761	-1.7784532
C	-3.8771821	-0.8729232	-2.7836364
H	-4.8853780	-1.0470242	-2.3860126
H	-3.9726574	-0.2618502	-3.6831865
H	-3.4658251	-1.8462250	-3.0781300
C	-3.2382500	-2.2300384	1.2632990
C	-3.2188756	-2.2319765	-0.2738340
C	-1.9220775	-0.3128776	0.4730626
C	-2.0200155	-1.3560698	1.6321659
H	-4.1659033	-1.7700356	1.6229227
H	-3.1684148	-3.2361364	1.6871916
H	-4.2081546	-2.4142161	-0.6994411
H	-2.5309080	-2.9989913	-0.6605057
H	-2.3250756	0.6682920	0.7752064
H	-1.1122573	-1.9682913	1.6443404
H	-2.1182523	-0.8717484	2.6074845
C	2.7806931	-2.5271493	-0.6329482
H	2.5539997	-2.4982502	-1.7157029
O	2.4370857	-3.5010424	0.0463738
C	3.5100918	-1.3288679	-0.0933398
H	2.9247307	-0.4174686	-0.2743114
H	3.6914905	-1.4420331	0.9775780
H	4.4661205	-1.2008683	-0.6181621
