31
-0.00651695 (energy)
C	1.9793562	-1.8168040	0.2884354
O	1.7019870	-2.5934792	-0.6158032
O	2.8649142	-2.2025898	1.2834886
H	3.0497651	-1.4897493	1.9283757
N	1.3078245	0.3298461	-0.7871395
C	3.7174922	0.5250458	-0.9133951
H	3.9065293	-0.0668653	-0.0274465
H	4.5906533	0.9039612	-1.4277606
C	2.4804113	0.7647466	-1.4099351
C	2.2955932	1.5550486	-2.6865775
H	1.7415775	2.4868811	-2.5144450
H	3.2686215	1.8164639	-3.1068087
H	1.7455952	0.9784187	-3.4404060
C	-0.9102992	0.4452942	-0.0185480
C	-0.0627558	0.5092995	-1.2994580
C	1.3355241	-0.4270281	0.4585478
C	-0.1686419	-0.5973521	0.8456350
H	-0.9125644	1.4239350	0.4751416
H	-1.9477100	0.1577694	-0.2132358
H	-0.1669879	1.4656625	-1.8166921
H	-0.3412187	-0.2930022	-1.9993841
H	1.8893163	0.1425349	1.2235997
H	-0.4983990	-1.6063479	0.5769788
H	-0.3303038	-0.4596153	1.9181825
C	4.3422042	-3.5071161	4.3046089
H	3.7362186	-4.0951041	3.5893226
O	4.6953600	-2.3574296	4.0191023
C	4.6785240	-4.2047509	5.5927365
H	5.2330764	-5.1301306	5.3873326
H	5.2753801	-3.5540788	6.2353603
H	3.7580436	-4.4963979	6.1156813
