31
-0.00268088 (energy)
C	2.0302062	2.1815251	-1.0978726
O	1.5556634	2.6877111	-2.1060345
O	2.1021277	2.9162516	0.0760860
H	2.4551256	2.4001744	0.8292444
N	1.8111226	-0.2278632	-1.7001795
C	0.0351926	-0.0334303	-0.0665300
H	0.5118190	0.7578894	0.4970647
H	-0.9308517	-0.3598401	0.2950968
C	0.5595674	-0.5805079	-1.1890783
C	-0.1909258	-1.6456680	-1.9576774
H	0.3526286	-2.5991906	-1.9724434
H	-1.1642512	-1.8219213	-1.4958457
H	-0.3601562	-1.3459722	-2.9992151
C	3.9197308	-0.5509187	-2.6868608
C	2.4160024	-0.7430439	-2.9419014
C	2.6511415	0.7718248	-1.0518318
C	3.9771789	0.7631489	-1.8782167
H	4.3058340	-1.3868474	-2.0922013
H	4.5002963	-0.4922646	-3.6122248
H	2.1543946	-1.7915060	-3.1010059
H	2.0865774	-0.1686089	-3.8208949
H	2.8254417	0.4819762	-0.0020702
H	3.9832499	1.6201115	-2.5598079
H	4.8578654	0.8330559	-1.2340363
C	3.6544593	-1.6440814	2.9068330
H	3.7470880	-0.6779638	3.4384530
O	3.4085528	-1.6638326	1.6955725
C	3.8465570	-2.8695800	3.7555554
H	3.1131532	-2.8815749	4.5728814
H	3.7384861	-3.7733095	3.1520900
H	4.8405548	-2.8538423	4.2219608
