31
-0.00251614 (energy)
C	2.1033213	0.1959866	2.3714430
O	3.1243831	0.7216856	1.9485022
O	1.2768831	0.8918445	3.2409005
H	0.4673680	0.3955235	3.4786856
N	1.8111227	-1.5863300	0.6527545
C	0.0564190	-0.0580715	-0.0150648
H	-0.1158401	0.3286007	0.9808318
H	-0.5559310	0.3628471	-0.8014578
C	1.0020317	-0.9810787	-0.3121369
C	1.2242127	-1.4341735	-1.7382825
H	1.0110953	-2.5033668	-1.8658812
H	0.5684434	-0.8790801	-2.4117468
H	2.2596272	-1.2635121	-2.0577335
C	2.9815571	-3.3210317	1.7228140
C	2.8917438	-2.5548442	0.3931346
C	1.6937177	-1.2584296	2.0684028
C	2.6858097	-2.2342548	2.7789526
H	2.2167346	-4.1056661	1.7522706
H	3.9584746	-3.7894701	1.8744479
H	2.6404068	-3.2089960	-0.4446845
H	3.8414585	-2.0489795	0.1623337
H	0.6548898	-1.4235438	2.4000142
H	3.6062654	-1.6955895	3.0271247
H	2.2661505	-2.6375473	3.7045364
C	4.9131931	1.6164492	-1.2966679
H	4.7194113	2.3960850	-0.5356163
O	4.2231296	0.5912077	-1.3232062
C	6.0395933	1.9081063	-2.2481073
H	6.9754527	2.0532928	-1.6921083
H	6.1593936	1.0896382	-2.9610832
H	5.8441540	2.8434043	-2.7892490
