31
-0.00223909 (energy)
C	-2.3931764	0.8294080	2.9975493
O	-1.6484919	0.3155233	3.8216690
O	-2.9885374	2.0515961	3.2713664
H	-3.5257188	2.3907341	2.5266433
N	-1.6585574	-0.3946561	0.9535520
C	-0.6545928	1.7688426	0.5389799
H	-1.4035795	2.3266122	1.0857071
H	0.1422690	2.3507326	0.0951618
C	-0.6509957	0.4189088	0.4292386
C	0.4610843	-0.2977678	-0.3043848
H	0.0892034	-0.8370020	-1.1851833
H	1.2082210	0.4224585	-0.6431721
H	0.9638180	-1.0278612	0.3417420
C	-3.1915570	-2.1748815	1.0231460
C	-1.6890061	-1.8680443	0.9166168
C	-2.8000522	0.1620846	1.6693676
C	-3.7129076	-1.0704005	1.9677594
H	-3.6593501	-2.0900946	0.0354956
H	-3.3906121	-3.1781942	1.4111353
H	-1.2544962	-2.2470594	-0.0110547
H	-1.1344329	-2.3053523	1.7606171
H	-3.3117620	0.9004965	1.0296074
H	-3.5764290	-1.3766233	3.0101554
H	-4.7706167	-0.8389456	1.8156273
C	3.9603639	-1.3886064	1.9935091
H	4.1157972	-0.4271113	2.5188191
O	3.7008669	-1.3996322	0.7849761
C	4.0884101	-2.6191918	2.8469384
H	3.3643096	-2.5836169	3.6718383
H	3.9205015	-3.5178434	2.2496036
H	5.0864882	-2.6602395	3.3029741
