31
-0.0019281 (energy)
C	1.9793562	-0.5995380	-1.7391165
O	1.7019870	0.1560951	-2.6610115
O	2.8649142	-1.6464650	-1.9462522
H	3.0497651	-2.1577714	-1.1322579
N	1.3078245	0.8324582	0.1881497
C	3.7174922	0.9906918	0.3584599
H	3.9065293	0.0154185	-0.0706155
H	4.5906533	1.5630409	0.6423002
C	2.4804114	1.5213119	0.5082959
C	2.2955932	2.9157936	1.0649049
H	1.7415775	2.9080871	2.0124712
H	3.2686215	3.3750348	1.2493763
H	1.7455952	3.5580391	0.3661344
C	-0.9102992	0.0955907	0.4353084
C	-0.0627558	1.3681552	0.2759137
C	1.3355241	-0.5257341	-0.3409146
C	-0.1686419	-0.9365170	-0.4414341
H	-0.9125644	-0.2206595	1.4848097
H	-1.9477100	0.2373926	0.1183445
H	-0.1669879	2.0436020	1.1279307
H	-0.3412187	1.9181297	-0.6357401
H	1.8893163	-1.1802596	0.3528453
H	-0.4983990	-0.8471524	-1.4817526
H	-0.3303038	-1.9688524	-0.1195440
C	0.0691492	-3.7027014	-5.2100716
H	-0.9722586	-3.4645907	-4.9213576
O	0.2945033	-4.3495512	-6.2390580
C	1.1312336	-3.1901962	-4.2781953
H	0.9769673	-3.5968001	-3.2697698
H	2.1234458	-3.4695648	-4.6388126
H	1.0635754	-2.0975003	-4.1930410
