31
-0.00646691 (energy)
C	0.4576100	-0.0731126	0.1114899
O	0.2008964	1.1126365	0.2724334
O	-0.5312716	-0.9409904	-0.3267747
H	-0.2053930	-1.8536089	-0.4650551
N	2.9408649	0.0598989	-0.0664875
C	2.3682683	-0.3448095	-2.3835732
H	1.4674586	-0.9020229	-2.1620924
H	2.6002545	-0.2124707	-3.4320139
C	3.1631642	0.2099178	-1.4376367
C	4.3779475	1.0244965	-1.8240478
H	5.3089125	0.5655461	-1.4669152
H	4.4404983	1.1071660	-2.9107719
H	4.3300500	2.0391344	-1.4099548
C	3.4874560	-0.2716310	2.1952507
C	3.7326893	0.6786836	1.0120688
C	1.8179373	-0.7138475	0.4489859
C	2.0207422	-0.7119965	1.9982531
H	4.1614137	-1.1332921	2.1260149
H	3.6473468	0.2109739	3.1639212
H	4.7890697	0.7366371	0.7405403
H	3.3795245	1.6955896	1.2407669
H	1.8543414	-1.7359827	0.0363038
H	1.3469854	0.0237940	2.4495318
H	1.8028102	-1.6891461	2.4377397
C	-0.1966853	-4.9689446	-1.2871946
H	-0.0824199	-4.6063481	-2.3264492
O	0.5521228	-4.5482523	-0.3981971
C	-1.2946801	-5.9720817	-1.0699357
H	-1.1296474	-6.8552257	-1.7014954
H	-1.3352485	-6.2732934	-0.0210303
H	-2.2610477	-5.5448207	-1.3689257
