31
-0.00624939 (energy)
C	0.2743942	-0.2591670	-0.2910716
O	-0.8894540	-0.6080799	-0.4377783
O	0.5860469	0.7450906	0.6130931
H	1.5481249	0.9113985	0.6833671
N	1.4293453	-2.2641317	-1.2195796
C	1.8366619	-2.5936801	1.1438994
H	1.8281797	-1.5396740	1.3888436
H	1.9974558	-3.2730158	1.9704630
C	1.6187470	-3.0799145	-0.1012780
C	1.5895201	-4.5703067	-0.3590133
H	2.3927199	-4.8839703	-1.0382481
H	1.7137149	-5.1130449	0.5799899
H	0.6379457	-4.8823904	-0.8066374
C	1.6452637	-1.5602904	-3.4516460
C	1.1353182	-2.7256100	-2.5884295
C	1.4502666	-0.8097426	-1.1212076
C	1.3171058	-0.3164235	-2.5977802
H	2.7275381	-1.6523899	-3.5988606
H	1.1679383	-1.5237686	-4.4353236
H	1.6549151	-3.6609253	-2.8080428
H	0.0570561	-2.8872562	-2.7379204
H	2.4022763	-0.4846020	-0.6691529
H	0.2848299	-0.0004776	-2.7810095
H	1.9754283	0.5319148	-2.8036875
C	4.5723588	2.6353169	0.3033366
H	4.3456655	2.6642159	-0.7794182
O	4.2287515	1.6614239	0.9826587
C	5.3017573	3.8335985	0.8429449
H	4.7163962	4.7449977	0.6619732
H	5.4831560	3.7204334	1.9138627
H	6.2577860	3.9615981	0.3181225
