31
-0.00488611 (energy)
C	-0.3843871	-0.0693181	0.2731738
O	0.5808368	-0.5883230	0.8179511
O	-0.2251645	0.5824091	-0.9405289
H	-1.0679445	0.9192163	-1.3072354
N	-2.2223371	-1.2965824	1.4271604
C	-2.2985226	-2.3598137	-0.7463797
H	-1.9364694	-1.4951446	-1.2869937
H	-2.5094867	-3.2387465	-1.3409639
C	-2.4507090	-2.3982984	0.5988845
C	-2.9087714	-3.6620536	1.2928960
H	-3.8725949	-3.5242132	1.7997679
H	-3.0256553	-4.4658948	0.5635856
H	-2.1835707	-3.9922669	2.0467532
C	-2.5984632	0.1953268	3.2039187
C	-2.3168180	-1.2846724	2.8982470
C	-1.7943868	-0.0096819	0.8922696
C	-1.7756451	0.9416874	2.1315869
H	-3.6679235	0.4030112	3.0831111
H	-2.3073252	0.4789854	4.2195817
H	-3.1196741	-1.9385812	3.2458833
H	-1.3770268	-1.6141690	3.3665959
H	-2.5153714	0.3308569	0.1302940
H	-0.7433745	1.0672502	2.4745734
H	-2.1782019	1.9295299	1.8916301
C	3.5806050	-2.0347865	-2.0160630
H	2.5455944	-2.2912312	-2.3119888
O	4.5339360	-2.6659228	-2.4859982
C	3.7107448	-0.9020559	-1.0367454
H	3.1618893	-1.1352792	-0.1145679
H	4.7613558	-0.7183402	-0.8021353
H	3.2603271	0.0094184	-1.4516574
