31
-0.00582486 (energy)
C	0.0276211	0.4594437	0.1238183
O	1.1605606	0.0369871	-0.0653487
O	-1.0607521	-0.3844161	-0.0390278
H	-1.9129109	0.0434319	0.1822465
N	0.5573986	2.4630972	1.5096867
C	-0.3307816	0.9893892	3.2125849
H	-0.9897416	0.4552934	2.5406384
H	-0.3414432	0.6672761	4.2453911
C	0.5070154	1.9780932	2.8189635
C	1.4418963	2.6426008	3.8053599
H	1.2195187	3.7109369	3.9240229
H	1.3470942	2.1697989	4.7847408
H	2.4884360	2.5564759	3.4881932
C	0.7175600	4.0617774	-0.2057443
C	1.4794675	3.4959724	1.0036021
C	-0.2998597	1.9275185	0.4591505
C	0.0020925	2.8224573	-0.7855469
H	-0.0129273	4.8067149	0.1303045
H	1.3790298	4.5364495	-0.9364558
H	1.6726779	4.2567004	1.7631996
H	2.4434933	3.0625141	0.6971803
H	-1.3554251	2.0062601	0.7689467
H	0.6758727	2.2854038	-1.4612555
H	-0.9082794	3.0710732	-1.3377040
C	3.4805052	1.4771887	-3.8889241
H	4.0844882	1.3270303	-4.8039322
O	2.6178103	2.3618094	-3.8540567
C	3.7933017	0.5491485	-2.7487584
H	4.8473358	0.6506038	-2.4576130
H	3.1530232	0.7674591	-1.8914599
H	3.6496917	-0.4938952	-3.0606068
