31
-0.00482978 (energy)
C	0.0935081	3.7355304	1.1989917
O	1.1937034	3.6107768	1.7203481
O	-0.1865586	4.8596985	0.4367690
H	-1.0767621	4.8342408	0.0304681
N	-0.6575973	1.3585415	1.2400639
C	-0.1549975	1.6063805	-1.1150394
H	-0.3773251	2.6649105	-1.1479536
H	0.1701533	1.1593010	-2.0450695
C	-0.2227823	0.8566073	0.0108482
C	0.1575563	-0.6074890	-0.0069013
H	-0.6934874	-1.2544250	0.2422440
H	0.5121280	-0.8880410	-1.0005237
H	0.9579949	-0.8237432	0.7112836
C	-1.7872091	1.3679739	3.3011368
C	-0.7046639	0.6142940	2.5116945
C	-1.0719156	2.7472302	1.3989548
C	-1.5794010	2.8371046	2.8739950
H	-2.7804088	1.0155529	2.9997629
H	-1.6902996	1.2345232	4.3826147
H	-0.9681058	-0.4325226	2.3449636
H	0.2626767	0.6468471	3.0354489
H	-1.8751380	2.9768641	0.6788893
H	-0.8048131	3.2995596	3.4945892
H	-2.4874418	3.4407009	2.9552203
C	3.7401442	1.9027439	0.6828049
H	3.7778997	1.5216703	1.7210440
O	3.2012329	1.2316482	-0.2044477
C	4.3750577	3.2474997	0.4646426
H	5.4331982	3.2173474	0.7570060
H	4.2920196	3.5440059	-0.5831005
H	3.8918708	4.0008633	1.1008713
