31
-0.00446341 (energy)
C	1.5361395	1.2690691	-1.8252566
O	0.8678357	2.2762860	-2.0168022
O	2.5441848	0.9290415	-2.7148635
H	3.0435653	0.1329482	-2.4409194
N	1.0952359	0.9340467	0.6056459
C	3.3694175	1.7591293	0.6944075
H	3.6490456	1.3692138	-0.2755269
H	4.1384586	2.3002906	1.2294583
C	2.1295443	1.6391766	1.2261061
C	1.7951335	2.2594671	2.5647470
H	1.5244881	1.5012788	3.3109215
H	2.6568504	2.8112905	2.9450771
H	0.9540293	2.9590543	2.4848792
C	-0.7623648	-0.4970391	0.4461252
C	-0.2874649	0.8098986	1.1015187
C	1.2812423	0.2707968	-0.6792135
C	-0.0682387	-0.4747992	-0.9328867
H	-0.4199948	-1.3548487	1.0363945
H	-1.8514320	-0.5539312	0.3595756
H	-0.3106749	0.7575248	2.1922726
H	-0.9089000	1.6609377	0.7842221
H	2.1272987	-0.4334580	-0.6113453
H	-0.6703216	0.1005496	-1.6438425
H	0.0911401	-1.4729174	-1.3498070
C	0.2972460	-0.8584407	-5.2707391
H	1.1193643	-1.2103759	-5.9225412
O	0.4729744	-0.7577480	-4.0513160
C	-0.9898870	-0.5306596	-5.9742491
H	-1.3618931	-1.4132663	-6.5115236
H	-1.7418457	-0.1930353	-5.2579078
H	-0.8203452	0.2504806	-6.7271693
