31
-0.00434508 (energy)
C	-0.4576100	0.0599968	-0.1190623
O	-0.2008965	0.7922526	0.8273547
O	0.5312716	-0.7534904	-0.6515341
H	0.2053931	-1.3295541	-1.3727447
N	-2.9408649	-0.0276305	0.0851176
C	-2.3682683	-2.2366396	0.8931730
H	-1.4674585	-2.3234385	0.2998717
H	-2.6002544	-3.0784465	1.5320022
C	-3.1631642	-1.1400711	0.9006125
C	-4.3779476	-1.0674234	1.7992638
H	-5.3089125	-0.9876128	1.2232348
H	-4.4404984	-1.9672192	2.4142199
H	-4.3300501	-0.2014893	2.4709195
C	-3.4874560	1.7653271	-1.3328651
C	-3.7326894	1.2158190	0.0817226
C	-1.8179373	0.0319093	-0.8427031
C	-2.0207421	1.3745395	-1.6157339
H	-4.1614137	1.2745364	-2.0444675
H	-3.6473469	2.8455228	-1.3992524
H	-4.7890697	1.0096451	0.2676760
H	-3.3795246	1.9223305	0.8480399
H	-1.8543413	-0.8365516	-1.5215570
H	-1.3469854	2.1332536	-1.2041600
H	-1.8028101	1.2665711	-2.6817135
C	2.7908867	2.0165106	-1.7221453
H	3.3352070	2.7133002	-2.3875643
O	1.5556529	2.0374368	-1.6800538
C	3.6535852	1.0880302	-0.9142137
H	4.3402142	1.6657282	-0.2810846
H	3.0361681	0.4392393	-0.2893592
H	4.2760072	0.4756823	-1.5801224
