31
-0.00434818 (energy)
C	-1.0258613	-2.0102137	-1.2351991
O	-1.9334122	-2.0173766	-2.0639876
O	0.0683146	-2.8273215	-1.3360094
H	0.6563322	-2.6275951	-0.5600497
N	0.1636747	-1.3303894	0.8578535
C	0.9043999	-2.0146591	3.0670743
H	1.6725817	-1.2546783	3.1272983
H	0.8384393	-2.7010227	3.9017812
C	0.0697008	-2.1497700	2.0156838
C	-0.9807851	-3.2382286	1.9712785
H	-0.8951060	-3.8454754	1.0620706
H	-0.8678044	-3.8999679	2.8323947
H	-2.0000962	-2.8329164	1.9990166
C	0.6967943	0.6253561	-0.3927770
C	1.0856755	-0.1645159	0.8659628
C	-1.0102845	-1.0628110	-0.0221772
C	-0.8282133	0.4102845	-0.4762697
H	0.9720650	1.6810010	-0.3191171
H	1.1928893	0.2097763	-1.2781886
H	0.9276448	0.4363869	1.7752250
H	2.1269368	-0.5020092	0.8645026
H	-1.9606832	-1.1931213	0.5019222
H	-1.2475460	0.5769647	-1.4709607
H	-1.3441907	1.0733777	0.2273962
C	5.0385613	-0.9964091	-1.2774327
H	5.5712099	-0.9555478	-0.3083100
O	3.8621926	-0.6245541	-1.3541965
C	5.8416758	-1.5211233	-2.4344807
H	6.1940098	-2.5386922	-2.2189322
H	5.2404143	-1.5262465	-3.3460920
H	6.7356533	-0.9015756	-2.5854047
