31
-0.00579156 (energy)
C	-1.8937709	0.3491124	-1.5968026
O	-2.7691307	0.0228203	-2.3954696
O	-1.6253574	1.6572925	-1.2940358
H	-0.8920602	1.6588470	-0.6231844
N	0.0000000	-0.0000000	0.0000000
C	2.3765550	0.2959441	0.4024408
H	2.2791621	0.2301081	1.4783039
H	3.3703089	0.4899931	0.0190616
C	1.3374237	0.1735673	-0.4493981
C	1.5216240	0.2870776	-1.9472034
H	0.8568871	1.0445885	-2.3796971
H	2.5512310	0.5700735	-2.1752545
H	1.3183199	-0.6595850	-2.4634784
C	-1.7291263	-0.6704357	1.4946144
C	-0.2555603	-0.2395657	1.4445447
C	-1.0356980	-0.6757983	-0.8335821
C	-1.8991414	-1.4672127	0.1849899
H	-1.9554329	-1.2646809	2.3841332
H	-2.3879593	0.2063102	1.4997185
H	0.4037232	-1.0388169	1.8178521
H	-0.0459727	0.6651879	2.0238744
H	-0.5977556	-1.3476637	-1.5763620
H	-2.9345673	-1.5550856	-0.1514680
H	-1.4903438	-2.4775751	0.2995462
C	-0.9088568	4.8072910	1.2069864
H	-0.3483378	5.7594336	1.2688392
O	-0.3007884	3.7320343	1.1612912
C	-2.4059245	4.9391171	1.1848908
H	-2.7184303	5.5515428	0.3285487
H	-2.8754710	3.9550925	1.1232593
H	-2.7526838	5.4576264	2.0886161
