31
-0.00433069 (energy)
C	-0.3627888	-0.2479202	0.1063158
O	0.6357021	-0.8926889	0.4191729
O	-0.2867704	0.9967657	-0.4593936
H	-1.2181333	1.3001701	-0.6275531
N	-2.8081250	0.2391772	-0.0963995
C	-4.6573372	1.6184022	0.6623545
H	-5.2590770	1.4271536	-0.2166417
H	-5.0735160	2.3007473	1.3926845
C	-3.4386269	1.0758924	0.8644134
C	-2.6282946	1.3847750	2.1046504
H	-1.6279529	1.7562095	1.8514675
H	-3.1332452	2.1494458	2.6983575
H	-2.4975094	0.5035911	2.7453163
C	-2.6980941	-1.3044324	-1.9070337
C	-3.5785431	-0.2097949	-1.2856397
C	-1.7939619	-0.7848725	0.2870431
C	-2.0608949	-1.9750861	-0.6729041
H	-3.2771673	-2.0032366	-2.5168966
H	-1.9248191	-0.8615837	-2.5463312
H	-4.5536698	-0.6154444	-0.9735624
H	-3.7663534	0.6328814	-1.9585089
H	-1.8926817	-1.0972300	1.3299265
H	-1.1438475	-2.5272695	-0.8900442
H	-2.7727258	-2.6652953	-0.2060222
C	3.1731688	1.0382054	2.4374226
H	2.3933603	0.2749160	2.2533818
O	2.9661829	1.9543723	3.2410439
C	4.4451876	0.8637854	1.6559984
H	4.2314212	0.8768163	0.5788814
H	5.1549876	1.6573297	1.8989964
H	4.8938305	-0.1135354	1.8782074
