31
-0.00423908 (energy)
C	-0.4326973	-0.0691024	0.1112704
O	-0.0882640	1.0055830	0.5981045
O	0.4183680	-0.8490594	-0.6252103
H	-0.0869356	-1.6613519	-0.8946878
N	-2.0048586	-1.9282425	-0.4631277
C	-3.2251882	-3.0610037	-2.2309521
H	-3.3323457	-3.9807101	-1.6706321
H	-3.6216884	-3.0609891	-3.2384088
C	-2.6152485	-1.9592980	-1.7465785
C	-2.4775728	-0.6998577	-2.5742805
H	-1.4331306	-0.3719039	-2.6401247
H	-2.8407875	-0.8792136	-3.5882288
H	-3.0569359	0.1347785	-2.1598371
C	-1.6667889	-2.5638755	1.8073158
C	-2.1949510	-3.0779549	0.4596067
C	-1.8398860	-0.6614964	0.3065288
C	-2.0634543	-1.0735440	1.7862566
H	-2.0988149	-3.1050493	2.6535251
H	-0.5766590	-2.6710274	1.8612185
H	-3.2632140	-3.3372974	0.5257230
H	-1.6593250	-3.9573434	0.0882452
H	-2.5580883	0.1050277	0.0039649
H	-1.4821836	-0.4484428	2.4677293
H	-3.1238208	-0.9593355	2.0385465
C	3.9549432	-0.0510604	2.4857357
H	3.1864327	-0.5159132	3.1321769
O	5.0335970	0.3118991	2.9682070
C	3.5811067	0.0901364	1.0368093
H	2.6704783	0.6961604	0.9391489
H	4.3940416	0.5560849	0.4759120
H	3.3537791	-0.8947964	0.6078069
