31
-0.0041316 (energy)
C	2.3257013	0.5639865	-0.7287381
O	3.4214306	1.1178059	-0.6717163
O	1.9699227	-0.2569909	-1.7653029
H	1.0514040	-0.5865042	-1.5768532
N	0.0000000	-0.0000000	0.0000000
C	-2.3708740	0.2284538	-0.4736247
H	-2.6473215	-0.6430106	0.1055365
H	-3.1735738	0.7377705	-0.9917474
C	-1.1030640	0.6750779	-0.5901747
C	-0.7638760	1.8917929	-1.4237160
H	0.0086939	1.6681059	-2.1692685
H	-1.6533920	2.2408501	-1.9520199
H	-0.3962562	2.7250493	-0.8116850
C	1.1136589	-1.3932598	1.5785515
C	-0.2539153	-1.1314807	0.9298875
C	1.2583396	0.7094945	0.3707178
C	1.7213389	0.0205399	1.6823326
H	1.0220841	-1.8870571	2.5498209
H	1.7310137	-2.0309316	0.9343326
H	-1.0011179	-0.8403732	1.6847123
H	-0.6490057	-1.9932352	0.3827023
H	1.1008541	1.7796174	0.5286852
H	2.8093963	0.0315938	1.7774176
H	1.2980142	0.5535807	2.5412474
C	-0.3067624	0.7200709	6.0321628
H	0.5153559	1.2737112	6.5242874
O	-0.1310341	0.2083834	4.9207188
C	-1.5938954	0.6526720	6.8053536
H	-1.9659015	1.6658097	7.0083572
H	-2.3458541	0.0904058	6.2476874
H	-1.4243536	0.1761542	7.7800329
