31
-0.00404424 (energy)
C	1.0258614	-1.5655038	-1.7651837
O	1.9334123	-2.3829450	-1.6283200
O	-0.0683145	-1.8066720	-2.5523723
H	-0.6563321	-1.0078187	-2.4904244
N	-0.1636747	0.6138009	-1.4591426
C	-0.9043998	2.6706364	-2.5166442
H	-1.6725816	2.8619148	-1.7786670
H	-0.8384391	3.3734763	-3.3375258
C	-0.0697007	1.6117571	-2.4671302
C	0.9807853	1.3790174	-3.5313417
H	0.8951062	0.3781750	-3.9714806
H	0.8678046	2.1121414	-4.3325591
H	2.0000964	1.4767159	-3.1370037
C	-0.6967943	-0.2782178	0.6840605
C	-1.0856755	0.8242390	-0.3123896
C	1.0102846	-0.2063956	-1.0428134
C	0.8282133	-0.3977889	0.4867548
H	-0.9720651	-0.0223661	1.7108768
H	-1.1928893	-1.2223427	0.4285445
H	-0.9276448	1.8240332	0.1214924
H	-2.1269368	0.7641958	-0.6445020
H	1.9606832	0.2871134	-1.2621529
H	1.2475459	-1.3484245	0.8236291
H	1.3441907	0.4103317	1.0175837
C	3.5056211	3.7640447	0.5825020
H	4.6104603	3.7546924	0.6443549
O	2.8784557	2.6998137	0.5368069
C	2.8712520	5.1264564	0.5604062
H	3.2453753	5.7033072	-0.2959359
H	1.7842885	5.0410833	0.4987745
H	3.1469145	5.6860136	1.4641315
