31
-0.00398384 (energy)
C	-1.9165057	-0.1732820	-1.7076435
O	-1.9393161	0.2126010	-2.8743329
O	-2.5017335	-1.3454347	-1.3093777
H	-2.3386184	-1.4381937	-0.3333869
N	-1.4085530	-0.0521238	0.7388501
C	-2.3213629	0.1855218	2.9766745
H	-1.4612039	-0.2630174	3.4565079
H	-3.1412274	0.4697503	3.6241449
C	-2.4175453	0.3754168	1.6443501
C	-3.6480042	0.9949333	1.0179276
H	-4.0665785	0.3552493	0.2315761
H	-4.4174302	1.1446475	1.7780288
H	-3.4366586	1.9724229	0.5663861
C	0.7946652	-0.6305113	0.0427675
C	-0.1191179	-0.5607973	1.2755257
C	-1.2024049	0.6016199	-0.5856704
C	0.3355421	0.5806626	-0.7945728
H	1.8536822	-0.5829387	0.3107335
H	0.6291770	-1.5641030	-0.5084045
H	0.2807307	0.1391281	2.0258865
H	-0.2653716	-1.5288221	1.7650833
H	-1.5834471	1.6259544	-0.6072151
H	0.5944820	0.5136408	-1.8535773
H	0.7687080	1.5046118	-0.3948779
C	3.9436095	1.1065304	-2.1217401
H	3.7169161	0.1832868	-2.6881447
O	3.6000022	1.2078941	-0.9386629
C	4.6730081	2.1729857	-2.8896782
H	4.0876470	2.4719593	-3.7694589
H	4.8544069	3.0438452	-2.2562154
H	5.6290368	1.7824760	-3.2629403
