31
-0.0038998 (energy)
C	1.0258614	-1.5655038	-1.7651837
O	1.9334123	-2.3829450	-1.6283200
O	-0.0683145	-1.8066720	-2.5523723
H	-0.6563321	-1.0078187	-2.4904244
N	-0.1636747	0.6138009	-1.4591426
C	-0.9043998	2.6706364	-2.5166442
H	-1.6725816	2.8619148	-1.7786670
H	-0.8384391	3.3734763	-3.3375258
C	-0.0697007	1.6117571	-2.4671302
C	0.9807853	1.3790174	-3.5313417
H	0.8951062	0.3781750	-3.9714806
H	0.8678046	2.1121414	-4.3325591
H	2.0000964	1.4767159	-3.1370037
C	-0.6967943	-0.2782178	0.6840605
C	-1.0856755	0.8242390	-0.3123896
C	1.0102846	-0.2063956	-1.0428134
C	0.8282133	-0.3977889	0.4867548
H	-0.9720651	-0.0223661	1.7108768
H	-1.1928893	-1.2223427	0.4285445
H	-0.9276448	1.8240332	0.1214924
H	-2.1269368	0.7641958	-0.6445020
H	1.9606832	0.2871134	-1.2621529
H	1.2475459	-1.3484245	0.8236291
H	1.3441907	0.4103317	1.0175837
C	4.6162291	-3.0353691	0.3331494
H	3.5748211	-3.4044580	0.3950021
O	4.8415834	-1.8208159	0.2874541
C	5.6783132	-4.0986504	0.3110541
H	5.5240471	-4.7686706	-0.5452880
H	6.6705255	-3.6466625	0.2494226
H	5.6106548	-4.7187441	1.2147794
