31
-0.00389379 (energy)
C	0.2585506	0.3661508	-0.0588928
O	-0.9034433	0.6860088	-0.2998313
O	0.6089735	-0.9033150	0.3162195
H	1.5949290	-0.9108883	0.4411326
N	2.7166135	0.7141759	0.2490550
C	4.5587266	0.7863379	1.8298671
H	5.3124310	0.6032052	1.0750869
H	4.9084693	0.8660793	2.8513870
C	3.2413048	0.8914108	1.5582812
C	2.2228028	1.1344285	2.6509069
H	1.4307822	0.3759099	2.6408310
H	2.7098584	1.1025444	3.6276079
H	1.7383238	2.1144271	2.5564325
C	2.7482524	0.7191832	-2.1325847
C	3.6534490	0.5901408	-0.8982754
C	1.4380155	1.3469818	-0.1856593
C	1.6786951	1.7298419	-1.6705336
H	3.2985594	1.0586006	-3.0143692
H	2.2864678	-0.2454569	-2.3754733
H	4.3988227	1.4002475	-0.8672771
H	4.1914856	-0.3618567	-0.8498365
H	1.1888730	2.2304935	0.4078503
H	0.7524482	1.6931793	-2.2482488
H	2.0735332	2.7508498	-1.7226544
C	5.5997432	-3.9261943	-0.2812588
H	5.5527775	-3.9129134	0.8242730
O	5.0905916	-3.0083754	-0.9342407
C	6.3065433	-5.1079273	-0.8837692
H	5.8164899	-6.0400628	-0.5722921
H	6.3055054	-5.0390915	-1.9736487
H	7.3407862	-5.1560962	-0.5179350
