31
-0.00382999 (energy)
C	2.6097160	0.9462959	-1.8794183
O	3.1940226	1.9790553	-2.1997060
O	1.9164419	0.1839125	-2.7811896
H	1.5478458	-0.5946058	-2.2853923
N	1.7661622	-0.8247051	-0.3270012
C	-0.1822200	-1.8123689	0.7340749
H	0.3067822	-2.7593872	0.9220493
H	-1.2226682	-1.7406834	1.0247812
C	0.4281338	-0.7610129	0.1488241
C	-0.3023979	0.5396540	-0.1057818
H	-0.2420742	0.8372638	-1.1596025
H	-1.3569588	0.4316822	0.1558056
H	0.1019172	1.3667373	0.4912987
C	4.0157394	-1.6026421	-0.4133152
C	2.5925100	-2.0197712	-0.0133477
C	2.6249819	0.3888840	-0.4447422
C	4.0463916	-0.1016893	-0.0596545
H	4.7790738	-2.1782948	0.1172792
H	4.1728297	-1.7476410	-1.4889863
H	2.5342686	-2.2481753	1.0624103
H	2.2238028	-2.8926272	-0.5613497
H	2.2991057	1.1944219	0.2184561
H	4.8202558	0.4635069	-0.5837917
H	4.1967858	0.0314753	1.0177125
C	7.0111655	-1.0052250	-3.9453611
H	6.8570676	0.0646626	-4.1823784
O	6.5811603	-1.4732803	-2.8851574
C	7.7562361	-1.7962307	-4.9837532
H	8.7494107	-1.3584632	-5.1511166
H	7.8619472	-2.8365200	-4.6687927
H	7.2251808	-1.7534112	-5.9439407
