31
-0.00382289 (energy)
C	2.6097160	-1.1544760	-1.7592255
O	3.1940226	-0.9154736	-2.8137651
O	1.9164419	-2.3166245	-1.5498677
H	1.5478458	-2.2765107	-0.6277524
N	1.7661622	-0.6955439	0.5507149
C	-0.1822200	-0.2704569	1.9365949
H	0.3067822	-0.5811756	2.8507240
H	-1.2226682	0.0171448	2.0198666
C	0.4281338	-0.2516210	0.7334686
C	-0.3023979	0.1782173	-0.5202449
H	-0.2420742	-0.5856133	-1.3048930
H	-1.3569588	0.3507727	-0.2959449
H	0.1019172	1.1088458	-0.9379798
C	4.0157394	-1.1592625	1.1812712
C	2.5925100	-1.0214450	1.7424993
C	2.6249819	-0.1907160	-0.5591545
C	4.0463916	-0.1025069	0.0582382
H	4.7790738	-0.9875807	1.9450982
H	4.1728297	-2.1633205	0.7690083
H	2.5342686	-0.2040134	2.4781821
H	2.2238028	-1.9324568	2.2244137
H	2.2991057	0.7863995	-0.9251716
H	4.8202558	-0.2738250	-0.6933046
H	4.1967858	0.8971025	0.4815979
C	5.3454061	4.1859016	-1.1104420
H	5.1187127	3.8427339	-2.1377827
O	5.0017987	3.5030834	-0.1389970
C	6.0748047	5.4964749	-1.0132125
H	5.4894436	6.2910140	-1.4949871
H	6.2562034	5.7564099	0.0318258
H	7.0308334	5.4372553	-1.5501627
