31
-0.00381354 (energy)
C	-1.9165057	1.5655037	0.7037552
O	-1.9393159	2.3829449	1.6212845
O	-2.5017336	1.8066717	-0.5104915
H	-2.3386185	1.0078184	-1.0788186
N	-1.4085531	-0.6138011	-0.4145654
C	-2.3213631	-2.6706367	-1.3276703
H	-1.4612041	-2.8619151	-1.9560334
H	-3.1412276	-3.3734767	-1.4052563
C	-2.4175453	-1.6117574	-0.4970543
C	-3.6480041	-1.3790178	0.3526741
H	-4.0665784	-0.3781754	0.1918673
H	-4.4174302	-2.1121418	0.1022800
H	-3.4366585	-1.4767161	1.4249757
C	0.7946651	0.2782179	-0.5674226
C	-0.1191181	-0.8242391	-1.1234275
C	-1.2024048	0.2063956	0.8138535
C	0.3355422	0.3977890	0.9001549
H	1.8536821	0.0223662	-0.6602066
H	0.6291769	1.2223427	-1.1003507
H	0.2807306	-1.8240332	-0.8924547
H	-0.2653719	-0.7641960	-2.2065404
H	-1.5834470	-0.2871134	1.7117256
H	0.5944822	1.3484247	1.3716145
H	0.7687082	-0.4103315	1.5004710
C	5.4749287	0.4047898	-0.0230514
H	5.2738652	1.4912200	-0.0849043
O	4.5357718	-0.3976493	0.0226438
C	6.9267993	0.0166384	-0.0009558
H	7.4299207	0.4852470	0.8553863
H	7.0314724	-1.0686366	0.0606758
H	7.4299871	0.3852791	-0.9046811
