31
-0.00381124 (energy)
C	2.6097160	-2.1007719	0.1201928
O	3.1940226	-2.8945288	-0.6140593
O	1.9164419	-2.5005371	1.2313218
H	1.5478458	-1.6819050	1.6576399
N	1.7661622	0.1291611	0.8777161
C	-0.1822200	1.5419119	1.2025201
H	0.3067822	2.1782116	1.9286748
H	-1.2226682	1.7578282	0.9950855
C	0.4281338	0.5093919	0.5846445
C	-0.3023979	-0.3614367	-0.4144632
H	-0.2420742	-1.4228771	-0.1452905
H	-1.3569588	-0.0809095	-0.4517505
H	0.1019172	-0.2578914	-1.4292785
C	4.0157394	0.4433796	1.5945864
C	2.5925100	0.9983261	1.7558470
C	2.6249819	-0.5796000	-0.1144123
C	4.0463916	-0.0008177	0.1178927
H	4.7790738	1.1907141	1.8278191
H	4.1728297	-0.4156795	2.2579946
H	2.5342686	2.0441619	1.4157718
H	2.2238028	0.9601704	2.7857635
H	2.2991057	-0.4080223	-1.1436278
H	4.8202558	-0.7373319	-0.1095129
H	4.1967858	0.8656273	-0.5361147
C	1.4111333	2.1333112	-3.1721232
H	1.5652312	1.2090103	-3.7607697
O	1.8411385	2.2105284	-2.0157733
C	0.6660627	3.2317643	-3.8773527
H	-0.3271120	2.8776391	-4.1843482
H	0.5603516	4.1015937	-3.2255868
H	1.1971179	3.5199306	-4.7942790
