31
-0.00374431 (energy)
C	1.9204937	1.5655037	0.6927982
O	2.5277438	2.3829448	0.0045921
O	1.5883015	1.8066718	1.9991424
H	1.0980344	1.0078186	2.3296579
N	0.8125367	-0.6138010	1.2229761
C	0.9248571	-2.6706365	2.5091982
H	-0.1379670	-2.8619148	2.4376527
H	1.5030384	-3.3734765	3.0956313
C	1.5324467	-1.6117572	1.9347341
C	3.0212277	-1.3790177	2.0747281
H	3.2385097	-0.3781753	2.4669675
H	3.4496920	-2.1121417	2.7611187
H	3.5485898	-1.4767161	1.1174471
C	-0.9734810	0.2782179	-0.0761300
C	-0.6308756	-0.8242390	0.9371631
C	1.4442304	0.2063955	0.1494430
C	0.3215683	0.3977889	-0.9052411
H	-1.8443755	0.0223662	-0.6857763
H	-1.1892693	1.2223428	0.4384903
H	-0.7887111	-1.8240332	0.5032100
H	-1.2150503	-0.7641958	1.8608858
H	2.3132667	-0.2871136	-0.2934376
H	0.4262571	1.3484245	-1.4328436
H	0.3756196	-0.4103317	-1.6435435
C	-5.1555863	0.4047923	0.9756404
H	-4.9454934	1.4912225	0.9649952
O	-4.2886963	-0.3976469	0.6114905
C	-6.5274556	0.0166412	1.4514465
H	-7.2931213	0.4852497	0.8188258
H	-6.6468955	-1.0686338	1.4293322
H	-6.6912052	0.3852820	2.4727709
