31
-0.00459244 (energy)
C	-0.4326973	0.0185877	0.1296562
O	-0.0882640	1.1547754	-0.1882017
O	0.4183680	-1.0522947	0.0668260
H	-0.0869356	-1.8477636	0.3825257
N	-2.0048586	-1.7748122	0.8846740
C	-3.2251882	-3.7788932	0.2585667
H	-3.3323457	-4.1232625	1.2789726
H	-3.6216884	-4.4264627	-0.5131993
C	-2.6152485	-2.6235884	-0.0785444
C	-2.4775728	-2.1908377	-1.5221534
H	-1.4331306	-1.9819343	-1.7833977
H	-2.8407875	-2.9799856	-2.1835952
H	-3.0569359	-1.2850701	-1.7411652
C	-1.6667889	-0.8023224	3.0325116
C	-2.1949510	-2.0624208	2.3305504
C	-1.8398860	-0.3097028	0.6600164
C	-2.0634543	0.3258012	2.0584127
H	-2.0988149	-0.6729528	4.0286054
H	-0.5766590	-0.8497575	3.1426794
H	-3.2632140	-2.2185899	2.5479005
H	-1.6593250	-2.9747781	2.6113310
H	-2.5580883	0.0830044	-0.0644732
H	-1.4821836	1.2426987	2.1786438
H	-3.1238208	0.5754588	2.1782663
C	3.2441002	1.5753880	-2.7157595
H	3.1570014	2.6631534	-2.5320120
O	3.1637379	1.1330015	-3.8672144
C	3.4587964	0.7286688	-1.4926282
H	2.6300847	0.8692671	-0.7858636
H	3.5331621	-0.3259915	-1.7660107
H	4.3745799	1.0408368	-0.9732969
