31
-0.00367935 (energy)
C	-2.3297570	-0.2735683	0.8691484
O	-3.4591028	-0.7541228	0.9342307
O	-1.9333465	0.7806664	1.6479275
H	-0.9857236	0.9744546	1.4193981
N	0.0000000	-0.0000000	0.0000000
C	1.5368013	1.4203223	-1.2322669
H	2.4198297	0.9698975	-0.7978942
H	1.7016620	2.2453815	-1.9136476
C	0.2795216	1.0218982	-0.9478282
C	-0.9255158	1.6927763	-1.5707588
H	-1.6324347	2.0420247	-0.8084991
H	-0.6082105	2.5560097	-2.1592568
H	-1.4742751	1.0203448	-2.2421318
C	0.4298111	-1.9564967	1.2886492
C	1.1232323	-0.7900485	0.5688451
C	-1.2397522	-0.8263259	-0.0665787
C	-0.7893646	-2.2406006	0.3876661
H	1.0870037	-2.8235789	1.3975162
H	0.1048149	-1.6532636	2.2912447
H	1.7761678	-1.1552855	-0.2392966
H	1.7297404	-0.1664888	1.2332622
H	-1.6640473	-0.8584902	-1.0734837
H	-1.5984585	-2.7761707	0.8892276
H	-0.4857572	-2.8238352	-0.4891068
C	2.1825858	-1.0545908	4.9256334
H	2.5164114	-0.0330620	5.1894938
O	2.4470469	-1.5251054	3.8135684
C	1.4149166	-1.7798780	5.9950821
H	0.5170497	-1.2094724	6.2680644
H	1.1267689	-2.7752592	5.6504607
H	2.0241860	-1.8661591	6.9045653
