31
-0.00363401 (energy)
C	-1.9013933	1.2004484	-1.0961996
O	-2.8399314	1.9900547	-1.1753095
O	-1.5566168	0.3629679	-2.1232363
H	-0.7686214	-0.1623303	-1.8217501
N	0.0000000	-0.0000000	0.0000000
C	0.8090111	-2.1143405	0.8789884
H	1.8516173	-1.8365669	0.7946366
H	0.6040197	-3.1165604	1.2335519
C	-0.2103297	-1.2950124	0.5472576
C	-1.6533939	-1.7341116	0.6697013
H	-2.1947474	-1.6109739	-0.2760906
H	-1.6991911	-2.7880241	0.9514025
H	-2.1971289	-1.1650279	1.4342525
C	1.1716484	2.0347008	-0.4005828
C	1.3782213	0.5549781	-0.0437902
C	-1.0007651	1.0958562	0.1476517
C	-0.1476028	2.3811438	0.3194371
H	2.0083557	2.6586023	-0.0746173
H	1.0622698	2.1589933	-1.4847221
H	1.8603407	0.4484609	0.9406034
H	1.9851442	0.0109723	-0.7744277
H	-1.6562126	0.9465797	1.0096399
H	-0.6587489	3.2575646	-0.0850978
H	0.0362000	2.5549019	1.3857839
C	5.0887218	-0.0423902	1.7164520
H	4.5831611	0.6500415	2.4161159
O	4.5016958	-0.4370965	0.7027363
C	6.4879481	-0.4378870	2.0970120
H	6.4887213	-0.9211270	3.0831791
H	6.9080983	-1.1191338	1.3540764
H	7.1228875	0.4541077	2.1807416
