31
-0.00360901 (energy)
C	2.9456687	0.3651654	-1.5582032
O	3.4768658	1.1207696	-2.3690560
O	2.6732097	-0.9459725	-1.8440919
H	2.2585658	-1.3432634	-1.0329204
N	1.8612179	-0.2880389	0.5994152
C	-0.1951510	-0.9741268	1.6940319
H	0.3147270	-1.4262247	2.5348250
H	-1.2746693	-1.0560768	1.6837436
C	0.4435046	-0.3542050	0.6800222
C	-0.3132910	0.2513858	-0.4821977
H	0.0472724	-0.1337438	-1.4436643
H	-1.3756963	0.0135512	-0.3990463
H	-0.2220074	1.3444440	-0.5127527
C	4.0938711	-0.2550019	1.4285122
C	2.6767207	-0.7511835	1.7526127
C	2.5641227	0.8044228	-0.1331726
C	3.8334323	1.0870342	0.7143794
H	4.7079797	-0.1445774	2.3264337
H	4.6041635	-0.9555937	0.7565426
H	2.3029680	-0.3006344	2.6854204
H	2.6084785	-1.8388027	1.8553568
H	1.9505214	1.7043347	-0.2257505
H	4.6629658	1.4279353	0.0909269
H	3.6129202	1.8708551	1.4479120
C	6.8463088	-3.9445247	1.2744988
H	7.2235241	-3.8078183	0.2431875
O	5.9294372	-3.2321045	1.6985460
C	7.5213770	-5.0253978	2.0714143
H	8.5978115	-4.8217273	2.1479253
H	7.0880241	-5.0901384	3.0717096
H	7.4172763	-5.9919495	1.5607733
