31
-0.00359929 (energy)
C	-2.9456687	-1.5979409	0.0890387
O	-3.4768658	-2.5276842	0.6923605
O	-2.6732096	-1.6518098	-1.2518241
H	-2.2585657	-0.7839730	-1.5022210
N	-1.8612179	0.6403261	-0.1795758
C	0.1951510	1.8374510	-0.6651623
H	-0.3147270	2.7439765	-0.9643898
H	1.2746693	1.8415495	-0.7476537
C	-0.4435046	0.7311982	-0.2307394
C	0.3132910	-0.5185247	0.1638340
H	-0.0472723	-1.3985075	-0.3824014
H	1.3756964	-0.3953371	-0.0559482
H	0.2220074	-0.7384229	1.2349804
C	-4.0938711	1.4510904	-0.0030697
C	-2.6767207	1.8564281	-0.4354337
C	-2.5641227	-0.2708359	0.7690766
C	-3.8334324	0.5147649	1.1945701
H	-4.7079798	2.3161954	0.2615995
H	-4.6041634	0.9109859	-0.8097042
H	-2.3029681	2.6968274	0.1702508
H	-2.6084785	2.1464743	-1.4886882
H	-1.9505215	-0.5182753	1.6392408
H	-4.6629659	-0.1584127	1.4220308
H	-3.6129203	1.1010446	2.0938595
C	4.9016967	0.7141396	-1.6902307
H	5.3584285	-0.2928314	-1.6456373
O	3.9260805	0.9840896	-0.9807859
C	5.5483595	1.6750615	-2.6481109
H	5.5239018	1.2663153	-3.6671179
H	5.0357745	2.6391069	-2.6268992
H	6.6060657	1.8135750	-2.3875637
