31
-0.00517314 (energy)
C	-0.4232693	-0.0277175	-0.1563906
O	0.2912857	-0.7093730	-0.8880648
O	0.0700217	0.6585993	0.9209590
H	-0.6944126	1.1358442	1.3400609
N	-2.5609350	0.9563430	0.6921591
C	-4.1942041	0.9804039	2.4892146
H	-4.5714004	1.9623234	2.2345418
H	-4.6266216	0.5092410	3.3628290
C	-3.2211998	0.3525260	1.7968047
C	-2.7167753	-1.0160004	2.2004460
H	-1.6287685	-1.0210635	2.3381567
H	-3.1787165	-1.3202560	3.1418405
H	-2.9554587	-1.7834727	1.4534125
C	-2.3225057	2.4182134	-1.1731345
C	-3.0720120	2.2452418	0.1564796
C	-1.9335301	0.1502279	-0.3944753
C	-2.1945204	0.9695287	-1.6867564
H	-2.8605003	3.0680454	-1.8687393
H	-1.3310086	2.8552111	-1.0036149
H	-4.1592769	2.1824001	-0.0069879
H	-2.8869430	3.0546364	0.8697528
H	-2.3682053	-0.8496007	-0.4739665
H	-1.3972820	0.8257065	-2.4193943
H	-3.1374870	0.6425799	-2.1395138
C	3.2309197	2.0867873	-1.9880973
H	3.5975258	1.7884164	-2.9886760
O	2.6882373	3.1860143	-1.8293270
C	3.4449482	1.0782990	-0.8943783
H	4.5152560	0.8553595	-0.7905223
H	3.0545531	1.4539972	0.0537879
H	2.9477222	0.1331133	-1.1497284
