31
-0.0032579 (energy)
C	-2.9456687	-0.8760801	-1.3393382
O	-3.4768658	-1.8634437	-1.8428587
O	-2.6732096	0.2582068	-2.0564213
H	-2.2585657	0.9089752	-1.4300509
N	-1.8612179	0.4756802	0.4647508
C	0.1951510	1.4947728	1.2586983
H	-0.3147270	2.2071741	1.8941587
H	1.2746693	1.5682618	1.2210019
C	-0.4435046	0.5654252	0.5178666
C	0.3132910	-0.4011467	-0.3671386
H	-0.0472723	-0.3680843	-1.4023437
H	1.3756964	-0.1492159	-0.3703461
H	0.2220074	-1.4387359	-0.0220029
C	-4.0938711	0.7282036	1.2551464
C	-2.6767207	1.3053106	1.3899972
C	-2.5641227	-0.8014578	0.1499875
C	-3.8334324	-0.7771457	1.0430845
H	-4.7079798	0.9315457	2.1366839
H	-4.6041634	1.1567174	0.3840849
H	-2.3029681	1.2009719	2.4206465
H	-2.6084785	2.3624789	1.1145573
H	-1.9505215	-1.6787619	0.3707807
H	-4.6629659	-1.3107212	0.5738259
H	-3.6129203	-1.2628134	2.0004622
C	4.1547940	-0.9789352	1.8038864
H	4.1925494	-1.9352283	1.2483138
O	3.6158827	0.0113726	1.2970560
C	4.7897075	-0.9976017	3.1660958
H	5.8478480	-1.2802876	3.0856332
H	4.7066693	-0.0172641	3.6400362
H	4.3065205	-1.7549850	3.7975341
