31
-0.00458923 (energy)
C	1.8736820	1.5320264	2.3195943
O	1.9236870	2.6120476	2.9040975
O	2.8445994	1.1240443	1.4444263
H	2.5839981	0.2229037	1.1160951
N	0.8870838	-0.6631281	1.6369913
C	-0.1005177	-1.9541381	-0.1673069
H	0.1294207	-2.9083352	0.2886946
H	-0.5743594	-1.9862032	-1.1402547
C	0.1929478	-0.7660190	0.4007165
C	-0.1363871	0.5432883	-0.2830141
H	0.7490689	1.1833781	-0.3778898
H	-0.5252195	0.3523598	-1.2852817
H	-0.8973083	1.1162789	0.2617091
C	1.6196232	-1.3646286	3.7921054
C	1.1428445	-1.8933987	2.4309894
C	0.7364097	0.5175424	2.5356275
C	0.7921053	-0.0751534	3.9691442
H	1.4550477	-2.0870391	4.5962347
H	2.6911846	-1.1329817	3.7626739
H	0.2141388	-2.4759593	2.5356055
H	1.8799483	-2.5261873	1.9266230
H	-0.2052375	1.0476731	2.3707620
H	1.2211590	0.6352228	4.6792927
H	-0.2236454	-0.3185009	4.3009627
C	5.7978636	-0.5366148	-0.4044688
H	5.9805067	0.5530634	-0.4663217
O	4.6408945	-0.9694503	-0.3587735
C	7.0294202	-1.3979267	-0.3823733
H	7.6624733	-1.1296563	0.4739687
H	6.7565948	-2.4535519	-0.3207417
H	7.6283445	-1.2236182	-1.2860987
