31
-0.0016411 (energy)
C	2.9456687	0.8760801	-1.3393381
O	3.4768658	1.8634437	-1.8428586
O	2.6732097	-0.2582068	-2.0564212
H	2.2585658	-0.9089752	-1.4300508
N	1.8612179	-0.4756801	0.4647509
C	-0.1951510	-1.4947728	1.2586983
H	0.3147270	-2.2071740	1.8941588
H	-1.2746693	-1.5682618	1.2210019
C	0.4435046	-0.5654252	0.5178666
C	-0.3132910	0.4011467	-0.3671386
H	0.0472724	0.3680842	-1.4023437
H	-1.3756963	0.1492159	-0.3703461
H	-0.2220074	1.4387359	-0.0220030
C	4.0938711	-0.7282034	1.2551466
C	2.6767207	-1.3053104	1.3899973
C	2.5641227	0.8014579	0.1499875
C	3.8334323	0.7771459	1.0430846
H	4.7079797	-0.9315454	2.1366842
H	4.6041635	-1.1567172	0.3840852
H	2.3029680	-1.2009717	2.4206467
H	2.6084785	-2.3624787	1.1145576
H	1.9505214	1.6787620	0.3707807
H	4.6629658	1.3107214	0.5738260
H	3.6129202	1.2628136	2.0004623
C	6.1997781	-1.9388919	-4.9042142
H	6.4264714	-3.0001789	-4.6877356
O	6.5433855	-1.4390052	-5.9812747
C	5.4703796	-1.1994017	-3.8178394
H	6.0557406	-1.2193611	-2.8888609
H	5.2889809	-0.1644046	-4.1152484
H	4.5143508	-1.6940239	-3.6006498
