31
-0.00136176 (energy)
C	-4.7204667	0.8073252	-0.2371322
O	-5.8192307	0.9348118	-0.7729074
O	-4.2501804	1.6926662	0.6956330
H	-3.3553785	1.3690308	0.9826148
N	-2.4835352	-0.2275335	0.1909232
C	-0.0768268	0.0157427	-0.0238478
H	0.1407684	-0.6911494	0.7662515
H	0.7739949	0.5037036	-0.4822998
C	-1.3273239	0.3197739	-0.4290902
C	-1.5819303	1.3263520	-1.5300948
H	-2.2683115	2.1170110	-1.2037700
H	-0.6427503	1.7956508	-1.8299014
H	-2.0183106	0.8627249	-2.4237753
C	-3.7525278	-1.8364428	1.4051316
C	-2.3245927	-1.3097697	1.1973596
C	-3.7786908	-0.3734208	-0.5340054
C	-4.3762421	-1.7023967	0.0008926
H	-3.7632259	-2.8647356	1.7767301
H	-4.2930615	-1.2126143	2.1272339
H	-1.6648305	-2.0986866	0.8034818
H	-1.8677214	-0.9165213	2.1110079
H	-3.6455070	-0.4159366	-1.6181517
H	-5.4682562	-1.6792816	-0.0008760
H	-4.0511208	-2.5302093	-0.6394926
C	3.7923439	1.1605434	0.7533406
H	3.7453782	1.8609919	-0.1020827
O	3.2831923	0.0377247	0.6635910
C	4.4991439	1.6785170	1.9744937
H	4.0090906	2.5927878	2.3350537
H	4.4981060	0.9252246	2.7651429
H	5.5333869	1.9505702	1.7252110
