31
-0.0051551 (energy)
C	1.0157634	-1.4722614	-1.8492534
O	0.4434607	-2.0369437	-2.7788736
O	2.2445767	-0.8848095	-1.9905583
H	2.4849369	-0.4915238	-1.1100345
N	1.3454919	-0.6854798	0.5024014
C	2.6316774	-0.9316221	2.5475654
H	2.3766614	0.0537037	2.9155340
H	3.3096014	-1.5141300	3.1585360
C	2.1714476	-1.4352574	1.3835467
C	2.5678390	-2.8147910	0.9039679
H	2.9918501	-2.7846498	-0.1069994
H	3.3182038	-3.2402614	1.5733796
H	1.7166767	-3.5069210	0.8811322
C	-0.2440167	0.9794200	-0.1098117
C	0.8133750	0.6289891	0.9478620
C	0.3979607	-1.3392851	-0.4457315
C	-0.8356487	-0.3976018	-0.4740334
H	-0.9956303	1.6753699	0.2727016
H	0.2253142	1.4406522	-0.9871735
H	0.3586067	0.5342425	1.9463732
H	1.6216234	1.3639411	1.0164844
H	0.1127149	-2.3435507	-0.1216884
H	-1.3370566	-0.4242832	-1.4440388
H	-1.5533487	-0.7166091	0.2903041
C	5.3561436	1.1573686	-1.1863619
H	4.8505830	1.0766705	-2.1674221
O	4.7691176	0.8081272	-0.1560983
C	6.7553700	1.7049560	-1.2236673
H	6.7561432	2.7090353	-1.6684944
H	7.1755202	1.7492714	-0.2166486
H	7.3903094	1.0754687	-1.8611711
