31
-0.00500211 (energy)
C	-1.2436936	2.0298271	0.7688008
O	-1.8782223	2.7333545	1.5517520
O	-0.9921360	2.4094644	-0.5225719
H	-0.4588121	1.6839503	-0.9432424
N	0.0000000	-0.0000000	0.0000000
C	-0.0163578	-1.9394376	-1.4614614
H	1.0600726	-2.0510846	-1.4499000
H	-0.5664763	-2.6323006	-2.0855544
C	-0.6748120	-0.9862808	-0.7698476
C	-2.1818483	-0.8613786	-0.8288058
H	-2.4923411	0.1493500	-1.1199596
H	-2.5852243	-1.5637050	-1.5610695
H	-2.6549765	-1.0836788	0.1359610
C	1.7721676	0.9147338	1.3022741
C	1.4669764	-0.1190596	0.2078876
C	-0.6410710	0.6707724	1.1676151
C	0.5119621	0.8582923	2.1897264
H	2.6874704	0.6768519	1.8511082
H	1.8915993	1.9142371	0.8669585
H	1.7201290	-1.1371068	0.5430136
H	2.0011103	0.0674446	-0.7291536
H	-1.4486143	0.0730345	1.5983144
H	0.3604156	1.7480358	2.8048869
H	0.5537910	-0.0127668	2.8534862
C	0.5431415	1.9299816	-4.4691970
H	1.3955090	2.3350540	-5.0470975
O	0.7467795	1.2812174	-3.4368944
C	-0.8185548	2.2287980	-5.0309533
H	-0.9027523	1.8283714	-6.0500785
H	-1.5963404	1.7933804	-4.4000509
H	-0.9670613	3.3143660	-5.1037619
