31
-0.00479735 (energy)
C	-0.3627888	-0.2693309	0.0151105
O	0.6357021	-0.9822188	0.0885761
O	-0.2867704	1.0937752	-0.0907748
H	-1.2181333	1.4363961	-0.1450227
N	-2.8081250	0.2577236	-0.0087825
C	-4.6573372	1.2942620	1.1759358
H	-5.2590770	1.4151815	0.2845386
H	-5.0735160	1.6856691	2.0955972
C	-3.4386269	0.7153614	1.1802597
C	-2.6282946	0.5814300	2.4513454
H	-1.6279529	1.0170580	2.3404694
H	-3.1332452	1.0969258	3.2707803
H	-2.4975094	-0.4657326	2.7519918
C	-2.6980941	-0.5735216	-2.2381677
C	-3.5785431	0.2425720	-1.2798602
C	-1.7939619	-0.8357134	0.0012900
C	-2.0608949	-1.6258271	-1.3078423
H	-3.2771673	-1.0215974	-3.0502564
H	-1.9248191	0.0612727	-2.6874476
H	-4.5536698	-0.2453506	-1.1253438
H	-3.7663534	1.2645634	-1.6239382
H	-1.8926817	-1.4859205	0.8744473
H	-1.1438475	-2.0704435	-1.7007451
H	-2.7727258	-2.4340946	-1.1051822
C	3.5708275	0.7567178	2.9383860
H	3.0719741	-0.0940185	3.4403579
O	3.8448369	1.7789940	3.5770427
C	3.8688768	0.5608565	1.4782890
H	2.9402012	0.3626456	0.9266361
H	4.3589840	1.4454530	1.0661474
H	4.5136946	-0.3169934	1.3389951
