31
-0.00478014 (energy)
C	-0.4232693	0.1215794	-0.1021994
O	0.2912857	0.4144002	-1.0583675
O	0.0700217	-0.4682743	1.0308432
H	-0.6944126	-0.5926047	1.6537004
N	-2.5609350	-0.1212559	1.1742969
C	-4.1942041	-1.6655211	2.0936620
H	-4.5714004	-0.9540082	2.8166928
H	-4.6266216	-2.6576748	2.1224302
C	-3.2211998	-1.3798155	1.2036988
C	-2.7167753	-2.4136424	0.2203409
H	-1.6287685	-2.5354349	0.2848115
H	-3.1787165	-3.3810417	0.4275450
H	-2.9554587	-2.1504285	-0.8178264
C	-2.3225057	2.2250710	1.5076670
C	-3.0720120	0.9871056	2.0226762
C	-1.9335301	0.4167395	-0.0671365
C	-2.1945204	1.9455383	-0.0037417
H	-2.8605003	3.1523984	1.7226355
H	-1.3310086	2.2967616	1.9708779
H	-4.1592769	1.0972518	1.8865200
H	-2.8869430	0.7740902	3.0802691
H	-2.3682053	-0.0143333	-0.9727590
H	-1.3972820	2.5081102	-0.4946144
H	-3.1374870	2.1741632	-0.5132665
C	2.8088225	2.2341073	0.6811033
H	2.0290140	1.5310947	1.0307528
O	2.6018367	3.4524897	0.7078121
C	4.0808414	1.5982040	0.1946128
H	3.8670751	0.9158288	-0.6388827
H	4.7906416	2.3622903	-0.1293203
H	4.5294842	0.9923660	0.9930447
