31
-0.00468768 (energy)
C	-0.4326973	-0.1309142	-0.0042092
O	-0.0882640	-0.0151822	1.1699126
O	0.4183680	0.1169183	-1.0479122
H	-0.0869356	-0.0558536	-1.8861168
N	-2.0048586	-0.5630410	-1.9014708
C	-3.2251882	0.4015593	-3.7663830
H	-3.3323457	-0.5435453	-4.2827121
H	-3.6216884	1.2740497	-4.2700987
C	-2.6152485	0.5329324	-2.5700911
C	-2.4775728	1.8794634	-1.8932348
H	-1.4331306	2.1004631	-1.6421406
H	-2.8407875	2.6678904	-2.5555357
H	-3.0569359	1.9378630	-0.9631969
C	-1.6667889	-2.8471191	-1.3167234
C	-2.1949510	-1.9370085	-2.4357837
C	-1.8398860	-0.5962099	-0.4196083
C	-2.0634543	-2.0837156	-0.0365880
H	-2.0988149	-3.8505449	-1.3622890
H	-0.5766590	-2.9473763	-1.3825683
H	-3.2632140	-2.1239382	-2.6273228
H	-1.6593250	-2.0550943	-3.3830373
H	-2.5580883	0.0490802	0.0929391
H	-1.4821836	-2.3613377	0.8455018
H	-3.1238208	-2.2451009	0.1884644
C	3.2821099	2.6179343	-0.7658630
H	2.2883632	2.8800868	-1.1761389
O	4.1935767	3.4529394	-0.7684910
C	3.4119585	1.2191343	-0.2314698
H	3.1890894	0.4905760	-1.0224054
H	4.4202891	1.0482676	0.1514801
H	2.6796120	1.0513920	0.5693700
