31
-0.00457961 (energy)
C	2.9263302	-1.2438160	-1.0619887
O	3.3403477	-2.1165560	-1.8219260
O	3.1075490	-1.3031872	0.2939920
H	2.6968695	-0.4851235	0.6811392
N	1.7317833	0.8570106	-0.4157601
C	-0.1845439	1.8145527	0.7280749
H	0.2847112	2.7801272	0.8650666
H	-1.1729265	1.6939415	1.1532035
C	0.4053822	0.7823924	0.0900845
C	-0.2863966	-0.5546903	-0.0644698
H	0.3309173	-1.3756998	0.3197381
H	-1.2285046	-0.5523896	0.4874466
H	-0.5191546	-0.7831206	-1.1121748
C	3.6782216	1.9198051	-1.2847132
C	2.4380795	2.1648884	-0.4120541
C	2.1939925	0.0161135	-1.5574638
C	3.1581045	0.9364061	-2.3530202
H	4.0690338	2.8455142	-1.7158911
H	4.4801671	1.4588382	-0.6955075
H	1.7938955	2.9438985	-0.8490735
H	2.6785333	2.4653203	0.6126662
H	1.3666754	-0.3182240	-2.1888777
H	3.9432534	0.3606057	-2.8480227
H	2.5932832	1.4753243	-3.1221853
C	6.5133390	-0.9435159	1.4087612
H	6.3032461	-1.9607854	1.0271769
O	5.6464490	-0.0649231	1.3410224
C	7.8852082	-0.7415084	1.9886282
H	8.6508739	-0.9654874	1.2338857
H	8.0046481	0.2858801	2.3390334
H	8.0489577	-1.4372308	2.8222766
