31
-0.00468019 (energy)
C	0.1231274	-0.4224953	-0.1035400
O	-1.0622159	-0.4470224	0.2204198
O	0.8577256	0.7330216	-0.1175065
H	1.7793528	0.4915662	-0.4004753
N	2.2974384	-1.3515879	-0.9203539
C	3.9102663	-1.4063105	-2.7351120
H	4.7250275	-1.7318826	-2.1014969
H	4.1513889	-1.2220898	-3.7743925
C	2.6530335	-1.2047754	-2.2888512
C	1.5492082	-0.7353502	-3.2115887
H	1.0610379	0.1694678	-2.8298257
H	1.9596227	-0.5083844	-4.1976065
H	0.7694706	-1.4955093	-3.3465334
C	2.4669309	-2.2015757	1.2982102
C	3.2876950	-1.9217172	0.0303072
C	0.9086232	-1.6875883	-0.4931201
C	1.0940199	-2.6202796	0.7336950
H	2.9220965	-2.9756511	1.9220830
H	2.3723348	-1.2932219	1.9054296
H	3.7134127	-2.8511964	-0.3791419
H	4.1110629	-1.2184566	0.1903658
H	0.3416686	-2.1902045	-1.2810656
H	0.2702925	-2.5161908	1.4433929
H	1.1242418	-3.6624477	0.3959925
C	5.1564311	2.1018876	0.7518992
H	5.2565856	1.6997545	1.7779796
O	4.2995136	1.6439402	-0.0122923
C	6.1140610	3.2034561	0.3933328
H	7.1494538	2.8536134	0.5011229
H	5.9446807	3.5385077	-0.6321562
H	5.9919604	4.0492493	1.0829259
