31
-0.0044882 (energy)
C	-0.3602658	-2.4909884	0.5331532
O	-1.2598948	-3.2340377	0.1469721
O	0.9371576	-2.9106632	0.6581112
H	1.4685258	-2.1320146	0.9729489
N	0.6528601	-0.3751731	1.4020189
C	1.7106008	0.7245452	3.2912938
H	2.1800525	1.4857098	2.6817493
H	1.9293761	0.7526195	4.3512611
C	0.9093055	-0.2402014	2.7937103
C	0.2861534	-1.2922438	3.6854071
H	0.5172018	-2.3059513	3.3364623
H	0.6663530	-1.1897532	4.7038022
H	-0.8065572	-1.2033052	3.7314059
C	0.4208100	0.3532485	-0.8538154
C	1.1270448	0.6813951	0.4702332
C	-0.5926937	-1.0100985	0.8826942
C	-0.9447459	-0.1927927	-0.3890883
H	0.3282879	1.2299800	-1.5006288
H	0.9743784	-0.4152660	-1.4067331
H	0.8301481	1.6746141	0.8419645
H	2.2190995	0.6637135	0.3978949
H	-1.4107578	-0.9734763	1.6068133
H	-1.4540074	-0.8097309	-1.1327765
H	-1.6111602	0.6334606	-0.1165663
C	4.5919815	-2.6410427	0.4702843
H	4.9177077	-2.1876226	1.4257400
O	3.9347915	-1.9765568	-0.3387720
C	5.0041955	-4.0710661	0.2600685
H	4.6058960	-4.7012633	1.0664530
H	4.6421125	-4.4355833	-0.7035703
H	6.0980555	-4.1585426	0.3004601
