31
-0.00446466 (energy)
C	-0.3627888	0.2693309	-0.0151104
O	0.6357020	0.9822188	-0.0885761
O	-0.2867703	-1.0937753	0.0907748
H	-1.2181332	-1.4363962	0.1450226
N	-2.8081249	-0.2577239	0.0087826
C	-4.6573372	-1.2942624	-1.1759356
H	-5.2590769	-1.4151820	-0.2845384
H	-5.0735159	-1.6856695	-2.0955971
C	-3.4386269	-0.7153617	-1.1802596
C	-2.6282947	-0.5814301	-2.4513453
H	-1.6279529	-1.0170580	-2.3404693
H	-3.1332453	-1.0969259	-3.2707802
H	-2.4975096	0.4657325	-2.7519916
C	-2.6980940	0.5735212	2.2381678
C	-3.5785430	-0.2425724	1.2798604
C	-1.7939620	0.8357132	-0.0012899
C	-2.0608950	1.6258268	1.3078425
H	-3.2771672	1.0215969	3.0502567
H	-1.9248190	-0.0612730	2.6874477
H	-4.5536697	0.2453501	1.1253440
H	-3.7663532	-1.2645639	1.6239383
H	-1.8926819	1.4859204	-0.8744472
H	-1.1438476	2.0704433	1.7007452
H	-2.7727260	2.4340943	1.1051825
C	3.2203586	-2.6728136	1.0757388
H	3.2463574	-3.3968111	0.2392374
O	3.0122747	-3.0656996	2.2291484
C	3.4507135	-1.2371604	0.6950625
H	2.6947473	-0.9135883	-0.0328545
H	3.4081946	-0.5959821	1.5780457
H	4.4280869	-1.1282333	0.2065038
