31
-0.00444547 (energy)
C	-0.3001419	-0.2221418	-0.2548550
O	-0.7709302	-0.1221391	0.8760509
O	0.9277472	0.2844897	-0.5875137
H	1.0849402	0.0683832	-1.5447792
N	-0.2634967	-0.8454175	-2.6772940
C	-0.2839378	-0.0352748	-4.9665747
H	0.1536271	-0.9392486	-5.3698978
H	-0.4752326	0.7640438	-5.6713282
C	-0.5681663	0.1366444	-3.6588831
C	-1.1675671	1.4256975	-3.1399461
H	-0.5677306	1.8513856	-2.3264754
H	-1.2190937	2.1624954	-3.9440969
H	-2.1859880	1.2851968	-2.7563825
C	0.1444252	-3.0366308	-1.8374024
C	0.2156830	-2.1833980	-3.1127332
C	-1.0249069	-0.9528341	-1.3994252
C	-1.1005005	-2.4775810	-1.1187243
H	0.0615962	-4.1041484	-2.0590588
H	1.0413262	-2.8895321	-1.2236427
H	-0.4458642	-2.5856634	-3.8959022
H	1.2241198	-2.1092709	-3.5318863
H	-2.0265367	-0.5216376	-1.4750950
H	-1.1269894	-2.6861410	-0.0468878
H	-2.0132451	-2.8845894	-1.5685156
C	3.1983631	-3.0647553	1.8784354
H	3.9668736	-3.6206547	2.4484795
O	2.1197093	-3.6029241	1.6047704
C	3.5721996	-1.6623599	1.4877803
H	4.4828281	-1.6714182	0.8740046
H	2.7592648	-1.1908951	0.9315117
H	3.7995272	-1.0688432	2.3832541
