31
-0.00436783 (energy)
C	0.1741467	-0.3496667	0.2275726
O	0.9917072	-0.0149249	-0.6269056
O	-1.0273415	0.2879827	0.3853013
H	-1.5079934	-0.1702012	1.1247674
N	-0.7117547	-1.6593149	2.1661356
C	-1.3335382	-1.6128531	4.5132151
H	-1.9800850	-2.4773811	4.4366021
H	-1.2867807	-1.1297601	5.4810045
C	-0.6260560	-1.1164463	3.4771413
C	0.2547702	0.1045842	3.6303226
H	0.0023486	0.8794190	2.8963859
H	0.1309293	0.5301083	4.6282090
H	1.3186122	-0.1322621	3.5030968
C	-1.0814633	-3.3429850	0.5224190
C	-1.4584978	-2.9265873	1.9521079
C	0.4018706	-1.5357148	1.1818621
C	0.3847593	-2.8791313	0.4044950
H	-1.1997443	-4.4179161	0.3608068
H	-1.7098087	-2.8219667	-0.2100374
H	-1.1356085	-3.6840294	2.6834353
H	-2.5321604	-2.7643026	2.0900978
H	1.3692153	-1.3795683	1.6664042
H	0.7297354	-2.7506262	-0.6238581
H	1.0502877	-3.5943144	0.9011397
C	4.4460567	-2.2248699	-2.9282907
H	3.9821175	-1.9250341	-3.8871659
O	4.8831492	-3.3720111	-2.7832751
C	4.4919913	-1.1574828	-1.8710997
H	3.4759496	-0.8099516	-1.6410385
H	4.9639224	-1.5388030	-0.9631059
H	5.0494314	-0.2857260	-2.2386783
