31
-0.00708478 (energy)
C	0.6558955	3.0503470	-0.0567033
O	0.8282866	3.8067923	0.8947384
O	-0.4545285	3.1342072	-0.8617469
H	-0.4185353	2.4045003	-1.5280853
N	1.0947432	0.9492653	-1.3527484
C	-0.1078272	-1.1458206	-1.5872653
H	0.1651493	-1.2715833	-2.6272967
H	-0.7444997	-1.9096003	-1.1594846
C	0.2738077	-0.0886062	-0.8378913
C	-0.1929526	0.0641421	0.5938654
H	-0.8146740	0.9570635	0.7294997
H	-0.7930945	-0.8022750	0.8784820
H	0.6450409	0.1365008	1.2975931
C	3.2008261	1.5290156	-2.3396493
C	1.9228196	0.6993590	-2.5646386
C	1.6839782	2.0070718	-0.4986944
C	2.7411588	2.6760672	-1.4216307
H	3.9581594	0.9196722	-1.8322353
H	3.6356693	1.8905825	-3.2759361
H	2.1381785	-0.3714882	-2.6484297
H	1.3877722	1.0050575	-3.4732436
H	2.1617538	1.6088977	0.4039406
H	2.2667965	3.4696336	-2.0117751
H	3.5471553	3.1275996	-0.8394096
C	4.5015866	3.1345956	2.6031233
H	4.5886856	2.7498429	3.6370295
O	4.5819489	2.3585998	1.6442779
C	4.2868903	4.6172180	2.4814088
H	5.1156019	5.1589950	2.9565526
H	4.2125244	4.9077921	1.4313549
H	3.3711067	4.9108880	3.0114199
