31
-0.00422745 (energy)
C	0.3717110	-0.3878107	2.7310944
O	1.3306145	-0.1878910	3.4711659
O	-0.9239306	-0.3210200	3.1838869
H	-1.5314394	-0.5650268	2.4428280
N	-0.6967214	-1.2756667	0.6437447
C	-2.0096595	-3.2581408	0.1573821
H	-2.6399577	-2.7540462	-0.5641515
H	-2.2286565	-4.3016549	0.3439994
C	-1.0161268	-2.6455682	0.8374972
C	-0.2098633	-3.3879944	1.8814642
H	-0.3443142	-2.9620693	2.8828400
H	-0.5314579	-4.4305507	1.9203056
H	0.8642967	-3.3771615	1.6606374
C	0.0032955	0.4142669	-0.9053744
C	-1.1254429	-0.5901618	-0.6065043
C	0.5074994	-0.6402286	1.2282371
C	0.6048520	0.7183038	0.4786310
H	0.7574959	-0.0513916	-1.5508710
H	-0.3595440	1.3137516	-1.4110691
H	-1.2419221	-1.3271970	-1.4085803
H	-2.0937945	-0.0921442	-0.4666336
H	1.4185273	-1.2293742	1.0717197
H	0.0010776	1.4714889	0.9994059
H	1.6347982	1.0795891	0.4443218
C	4.2831686	-2.4410932	1.6741615
H	4.3757973	-1.7150644	2.5041525
O	4.0372620	-2.0453778	0.5291936
C	4.4752663	-3.8829653	2.0525544
H	3.7418625	-4.1737789	2.8164871
H	4.3671954	-4.5257959	1.1763888
H	5.4692641	-4.0276968	2.4962147
