31
-0.00420821 (energy)
C	-0.4266190	-0.1618245	-0.0276673
O	0.2269803	-0.9422473	0.6585673
O	0.1295600	0.9705116	-0.5723222
H	-0.5788724	1.4782410	-1.0393433
N	-2.5753446	0.8314893	-0.8542086
C	-3.7814861	2.8697992	-0.3240445
H	-4.1299625	3.0153597	-1.3386253
H	-4.0700921	3.6226213	0.3982248
C	-2.9964942	1.8377286	0.0548048
C	-2.4880445	1.7226322	1.4758454
H	-1.3948204	1.7896428	1.5269668
H	-2.8971283	2.5356076	2.0788187
H	-2.7821981	0.7765326	1.9460271
C	-3.2450142	-0.8933219	-2.3780977
C	-3.3287159	0.6230425	-2.1214194
C	-1.8849130	-0.4058582	-0.4208078
C	-1.9395561	-1.3157896	-1.6801869
H	-4.1010796	-1.3990166	-1.9157698
H	-3.2482811	-1.1384538	-3.4440959
H	-4.3629093	0.9612553	-1.9942570
H	-2.8848429	1.2046028	-2.9399881
H	-2.3794663	-0.8952805	0.4262134
H	-1.0775446	-1.1058713	-2.3250965
H	-1.9048442	-2.3727177	-1.4078057
C	4.1496390	0.6469819	2.5404256
H	4.7239091	-0.1955985	2.9703733
O	3.9973888	1.6881456	3.1891245
C	3.5994614	0.4165907	1.1608232
H	2.9349805	-0.4577730	1.1604831
H	3.0499808	1.2953608	0.8167143
H	4.4159396	0.1943597	0.4609732
