31
-0.00393559 (energy)
C	-0.4292183	-0.1564862	-0.0154959
O	-0.1664043	0.1028656	1.1553308
O	0.4850599	0.0266764	-1.0248105
H	0.0533343	-0.1926710	-1.8869440
N	-2.0134276	-0.6007586	-1.9075233
C	-2.8376194	0.7550879	-3.7440817
H	-2.8672563	-0.0735876	-4.4400821
H	-3.1325516	1.7218109	-4.1315984
C	-2.4261247	0.6393027	-2.4626080
C	-2.3459581	1.8479096	-1.5548816
H	-1.3173254	2.0536510	-1.2357767
H	-2.7096221	2.7299851	-2.0854914
H	-2.9535575	1.7276668	-0.6498589
C	-2.6226416	-2.8600170	-1.3876398
C	-2.4351787	-1.8732873	-2.5553183
C	-1.7502125	-0.7865843	-0.4612359
C	-1.6716446	-2.3307615	-0.2989375
H	-3.6593861	-2.8266270	-1.0321571
H	-2.4003085	-3.8925531	-1.6720507
H	-3.3659647	-1.7125577	-3.1102216
H	-1.6757535	-2.2188406	-3.2688703
H	-2.5444601	-0.3754778	0.1725815
H	-0.6465010	-2.6705010	-0.4904982
H	-1.9427525	-2.6375928	0.7134105
C	4.6070858	0.9175744	1.3374888
H	4.7213511	1.9988935	1.1318792
O	5.3558939	0.3580263	2.1463178
C	3.5090910	0.2278540	0.5773761
H	3.6741238	0.3332286	-0.5032289
H	3.4685228	-0.8311305	0.8409719
H	2.5427234	0.7004173	0.7979000
