31
-0.00393536 (energy)
C	2.2135844	1.0801728	1.2964234
O	3.0727206	1.8801551	0.9371422
O	1.8289721	0.9660076	2.6106566
H	1.1694202	0.2330586	2.6851649
N	0.7888343	-0.9603718	0.9912517
C	0.9132901	-3.2243180	1.8570558
H	-0.1611490	-3.3340297	1.9314998
H	1.5084895	-4.0667867	2.1852198
C	1.5202533	-2.1000324	1.4183229
C	3.0292540	-1.9834426	1.3971513
H	3.3892554	-1.1961748	2.0700934
H	3.4745848	-2.9254070	1.7230946
H	3.4138041	-1.7607454	0.3945403
C	-0.8296003	-0.0835393	-0.5441646
C	-0.6365593	-1.1099418	0.5878618
C	1.4249756	0.2000607	0.3247073
C	0.2200981	1.0015853	-0.2434700
H	-0.6215133	-0.5518696	-1.5135400
H	-1.8472215	0.3161488	-0.5780603
H	-0.8166217	-2.1354112	0.2471211
H	-1.3051746	-0.9173641	1.4370718
H	2.1046137	-0.0929858	-0.4838582
H	-0.1555756	1.6940562	0.5196756
H	0.5111932	1.5902079	-1.1159838
C	2.7518972	2.7432565	-2.8068929
H	2.7883172	3.4455082	-1.9524345
O	2.9024881	1.5307476	-2.6193921
C	2.5136939	3.3726933	-4.1508224
H	3.3027601	4.1043038	-4.3702931
H	2.4928532	2.6098276	-4.9319615
H	1.5634841	3.9230563	-4.1469124
