31
-0.00375677 (energy)
C	-2.3160168	-0.0040763	-0.9606842
O	-3.4440177	0.4592536	-1.1024904
O	-2.0205400	-1.3094131	-1.2720659
H	-1.0769781	-1.4858934	-1.0347477
N	0.0000000	0.0000000	0.0000000
C	1.0556525	-1.2256983	1.8093701
H	2.0121764	-1.2903473	1.3064979
H	0.9870303	-1.7013164	2.7793113
C	-0.0297435	-0.6249433	1.2746573
C	-1.3586010	-0.6224948	1.9994030
H	-2.1304391	-1.1669845	1.4425909
H	-1.2476207	-1.1084070	2.9707053
H	-1.7335722	0.3931491	2.1742332
C	0.9914164	1.6973509	-1.3717735
C	1.3051536	0.4088715	-0.5884214
C	-1.1139292	0.8306174	-0.5145844
C	-0.4948860	1.5514220	-1.7451222
H	1.1344518	2.5720706	-0.7262285
H	1.6333061	1.8210973	-2.2487666
H	2.0315801	0.5824491	0.2130083
H	1.7055519	-0.3808046	-1.2375618
H	-1.4722502	1.5635716	0.2174992
H	-0.6038511	0.9207674	-2.6358743
H	-0.9971788	2.5006456	-1.9430359
C	5.5247298	0.0325896	1.0939870
H	5.3569468	1.0968992	1.3463299
O	4.6265823	-0.6262821	0.5580473
C	6.8814848	-0.5090913	1.4473645
H	7.0613780	-0.4028203	2.5255073
H	6.9587661	-1.5609686	1.1642420
H	7.6634189	0.0689076	0.9371589
