31
-0.00372359 (energy)
C	0.2735706	-0.1084657	0.3497867
O	-0.8874720	-0.2242103	0.7315628
O	0.5835570	0.2888845	-0.9285679
H	1.5659923	0.2650563	-1.0382378
N	2.7369954	-0.5460069	0.5139839
C	4.2420790	-2.0563718	-0.6453607
H	5.0687531	-1.3574141	-0.6372376
H	4.4185636	-3.0072050	-1.1316495
C	3.0277667	-1.7825000	-0.1206238
C	1.8909906	-2.7770556	-0.2192324
H	1.0560472	-2.3879312	-0.8139545
H	2.2433624	-3.6901870	-0.7028445
H	1.4939005	-3.0517231	0.7654395
C	3.2877106	0.9687255	2.2882352
C	3.8519656	0.3010396	1.0201411
C	1.4834437	-0.3031544	1.2657761
C	1.7694642	1.0153997	2.0381777
H	3.5069017	0.3496721	3.1663299
H	3.7138323	1.9606376	2.4642552
H	4.7213298	-0.3282689	1.2398930
H	4.1552923	1.0390670	0.2660862
H	1.2429994	-1.1117704	1.9656969
H	1.5134143	1.8756364	1.4077261
H	1.1720546	1.0785786	2.9501006
C	4.2221037	2.7790436	-2.6821941
H	4.1262763	3.4909237	-1.8403944
O	4.1040217	1.5647320	-2.4834075
C	4.4959784	3.3983026	-4.0240544
H	5.4266769	3.9801806	-3.9884841
H	4.5748500	2.6263149	-4.7924235
H	3.6933604	4.1000997	-4.2869205
