31
-0.00370922 (energy)
C	1.9843658	-0.9100445	2.2298302
O	2.0535177	-0.5159139	3.3904544
O	2.9510670	-0.6106002	1.3003190
H	2.6743233	-0.9791813	0.4254845
N	0.7503347	-1.8183513	0.2451360
C	-0.1181457	-0.8068612	-1.7829636
H	0.1013909	-1.6713936	-2.3964661
H	-0.5578788	0.0439672	-2.2873775
C	0.1594592	-0.7385064	-0.4626712
C	-0.1125684	0.5224236	0.3292764
H	0.8092519	0.9651967	0.7248040
H	-0.5855529	1.2656960	-0.3154618
H	-0.7820192	0.3419683	1.1789664
C	0.5594468	-4.1113932	0.9168428
C	0.6736308	-3.1953162	-0.3160464
C	0.8792559	-1.8377789	1.7211315
C	1.2520553	-3.3137534	2.0365944
H	-0.4959442	-4.2736502	1.1661313
H	1.0186244	-5.0908576	0.7548008
H	-0.2009015	-3.2774035	-0.9706984
H	1.5638658	-3.4223992	-0.9170499
H	-0.0491150	-1.5600602	2.2335396
H	2.3399513	-3.4404875	1.9777858
H	0.9355972	-3.5965286	3.0427683
C	3.4914058	3.6901686	3.6413674
H	4.3240282	3.3483756	4.2851845
O	2.7317396	4.5833184	4.0327786
C	3.3775102	2.9993474	2.3113780
H	3.2475117	1.9186541	2.4571495
H	2.5330794	3.3975347	1.7448444
H	4.3034536	3.1323923	1.7362770
