31
-0.00367959 (energy)
C	-0.3717109	2.7569456	0.0923302
O	-1.3306144	3.4510581	0.4177246
O	0.9239308	3.1912610	0.2367327
H	1.5314395	2.5038317	-0.1322504
N	0.6967215	0.8554818	-1.1445014
C	2.0096596	0.7207608	-3.1813132
H	2.6399578	-0.0773461	-2.8101698
H	2.2286567	1.0857471	-4.1765684
C	1.0161270	1.2841715	-2.4599463
C	0.2098635	2.4411991	-3.0098106
H	0.3443144	3.3534007	-2.4164693
H	0.5314581	2.6604883	-4.0297835
H	-0.8642965	2.2218462	-3.0374884
C	-0.0032956	-0.9635563	0.2507568
C	1.1254429	-0.4948097	-0.6865142
C	-0.5074993	1.3207519	-0.4172211
C	-0.6048520	0.3466275	0.7905045
H	-0.7574960	-1.5183858	-0.3199166
H	0.3595439	-1.6177622	1.0487634
H	1.2419221	-1.1567157	-1.5516311
H	2.0937945	-0.4435438	-0.1717743
H	-1.4185272	1.2689164	-1.0245953
H	-0.0010776	0.7287015	1.6226786
H	-1.6347982	0.2501031	1.1403433
C	3.9673908	-3.6396255	-1.1704885
H	4.1742283	-3.9883565	-0.1408342
O	3.7201747	-2.4472654	-1.3830296
C	4.0133167	-4.7011013	-2.2336151
H	3.2841385	-5.4912522	-2.0099913
H	3.7985019	-4.2700590	-3.2137344
H	5.0024388	-5.1777789	-2.2487581
