31
-0.00355874 (energy)
C	-2.6402611	1.6237465	-0.3612472
O	-2.8818043	2.5063682	-1.1796637
O	-2.4965383	1.8926392	0.9786072
H	-2.2557878	1.0550261	1.4457453
N	-1.8450778	-0.6616570	0.2956235
C	0.2259730	-1.4957180	1.2472797
H	-0.2665402	-2.2536915	1.8430186
H	1.3023784	-1.4313800	1.3417224
C	-0.4332668	-0.6322431	0.4443332
C	0.3055210	0.4483781	-0.3156502
H	0.0054222	1.4531979	0.0045381
H	1.3786474	0.3525295	-0.1393881
H	0.1369783	0.3835227	-1.3973566
C	-3.7602728	-1.9467606	-0.3572211
C	-2.5964503	-1.8971377	0.6504026
C	-2.5632340	0.1392690	-0.7233613
C	-3.9932140	-0.4707627	-0.7272864
H	-3.4622152	-2.5162538	-1.2455686
H	-4.6542937	-2.4203872	0.0585392
H	-1.9372771	-2.7673577	0.5591777
H	-2.9516380	-1.8538879	1.6883147
H	-2.1126388	0.0637400	-1.7197656
H	-4.6067476	0.0214562	0.0371315
H	-4.4827524	-0.3281203	-1.6929460
C	5.0099286	0.2952696	-0.2778524
H	4.8088651	1.0877652	-1.0235783
O	4.0707718	-0.2900620	0.2729501
C	6.4617993	0.0121311	-0.0114275
H	6.9649208	0.9215522	0.3433528
H	6.5664724	-0.7796217	0.7333864
H	6.9649870	-0.2863772	-0.9406789
