31
-0.00478446 (energy)
C	-0.2735706	0.3079281	0.1982317
O	0.8874720	0.6419945	0.4162900
O	-0.5835570	-0.8181703	-0.5256328
H	-1.5659923	-0.8704112	-0.6249613
N	-2.7369953	0.7486482	0.0427680
C	-4.2420789	1.1604425	-1.8161853
H	-5.0687531	0.6302313	-1.3606813
H	-4.4185636	1.5762425	-2.7998880
C	-3.0277666	1.2879388	-1.2381721
C	-1.8909905	1.9864282	-1.9529987
H	-1.0560471	1.3060615	-2.1584579
H	-2.2433623	2.3750675	-2.9104167
H	-1.4939004	2.8297706	-1.3752492
C	-3.2877106	0.7287627	2.3755746
C	-3.8519656	0.4251246	0.9749780
C	-1.4834436	1.0458551	0.7747768
C	-1.7694641	0.5322742	2.2140210
H	-3.5069016	1.7674135	2.6503143
H	-3.7138323	0.0820575	3.1480026
H	-4.7213298	1.0484567	0.7388060
H	-4.1552923	-0.6249343	0.8717333
H	-1.2429993	2.1151912	0.7911789
H	-1.5134143	-0.5319517	2.2840166
H	-1.1720545	1.0700492	2.9532051
C	3.5584181	2.5435549	-1.5350016
H	3.1858006	3.1788919	-0.7091167
O	3.4170259	2.9063008	-2.7082176
C	4.2201309	1.2609035	-1.1154546
H	3.5206156	0.6489347	-0.5304593
H	4.5556491	0.6998892	-1.9902501
H	5.0770333	1.4740420	-0.4626885
