31
-0.00347173 (energy)
C	0.4854879	2.3425996	-0.7505953
O	0.5769031	3.5536568	-0.5712820
O	0.3852860	1.7982300	-2.0082878
H	0.2700727	0.8199587	-1.9217680
N	0.0000000	0.0000000	0.0000000
C	-1.9039536	-1.4788145	-0.2804052
H	-1.2942639	-2.3698822	-0.3596188
H	-2.9736690	-1.6159499	-0.3731970
C	-1.3952498	-0.2388114	-0.1115213
C	-2.2958705	0.9770979	-0.0718812
H	-2.0980129	1.6613762	-0.9054628
H	-3.3391251	0.6633560	-0.1428823
H	-2.1806811	1.5481836	0.8572550
C	2.0133282	-0.4463099	1.2218781
C	0.9088903	-1.1155555	0.3824867
C	0.5625451	1.3165892	0.3817024
C	2.0515852	1.0006500	0.6978335
H	1.7353946	-0.4565350	2.2825243
H	2.9780559	-0.9525696	1.1246463
H	0.3518417	-1.8627909	0.9582039
H	1.3131621	-1.6131621	-0.5087160
H	0.0697175	1.7524114	1.2584818
H	2.6445607	1.0567737	-0.2231811
H	2.4672369	1.7182561	1.4083041
C	6.5877482	-1.4240484	-0.1599362
H	6.3776553	-1.6022217	-1.2317096
O	5.7208581	-0.9260886	0.5670780
C	7.9596175	-1.8252239	0.3049410
H	8.7252831	-1.2835872	-0.2664018
H	8.0790573	-1.6149894	1.3698881
H	8.1233672	-2.8950459	0.1192520
