31
-0.00335288 (energy)
C	1.9843658	1.6178090	-1.7841013
O	2.0535177	1.6444043	-3.0095320
O	2.9510670	1.0185119	-1.0130625
H	2.6743233	1.0656538	-0.0649249
N	0.7503347	1.7925328	0.3915603
C	-0.1181457	0.1483920	1.9514005
H	0.1013909	0.7509564	2.8235918
H	-0.5578788	-0.8236449	2.1343940
C	0.1594592	0.5357261	0.6873528
C	-0.1125684	-0.3782984	-0.4880980
H	0.8092519	-0.6590906	-1.0112097
H	-0.5855529	-1.2972594	-0.1364565
H	-0.7820192	0.0818852	-1.2248260
C	0.5594468	4.1770245	0.5446291
C	0.6736308	2.8945207	1.3898491
C	0.8792559	2.3156090	-0.9887771
C	1.2520553	3.8104660	-0.7804021
H	-0.4959442	4.4147579	0.3658697
H	1.0186244	5.0419984	1.0318953
H	-0.2009015	2.7477534	2.0330963
H	1.5638658	2.9023537	2.0322746
H	-0.0491150	2.2298927	-1.5652685
H	2.3399513	3.9094433	-0.6817945
H	0.9355972	4.4203195	-1.6291815
C	5.6210145	-1.1620281	0.7461231
H	5.7714880	-1.4700069	-0.3060602
O	4.5494479	-0.6548847	1.0962127
C	6.7858562	-1.4068332	1.6638879
H	7.6736178	-0.8741723	1.2975565
H	6.5505635	-1.0745968	2.6772156
H	7.0395687	-2.4751562	1.6752645
