31
-0.00329857 (energy)
C	-2.6402611	-1.1247225	-1.2255822
O	-2.8818043	-2.2748028	-1.5807467
O	-2.4965383	-0.0988209	-2.1283772
H	-2.2557878	0.7245391	-1.6365521
N	-1.8450778	0.5868459	0.4252000
C	0.2259730	1.8280348	0.6716900
H	-0.2665402	2.7229466	1.0302449
H	1.3023784	1.8776557	0.5687503
C	-0.4332668	0.7009254	0.3253720
C	0.3055210	-0.4975501	-0.2304817
H	0.0054222	-0.7226688	-1.2607754
H	1.3786474	-0.2969783	-0.2356055
H	0.1369783	-1.4019077	0.3665378
C	-3.7602728	0.6640177	1.8645547
C	-2.5964503	1.5118340	1.3177682
C	-2.5632340	-0.6960838	0.2410701
C	-3.9932140	-0.3944671	0.7713357
H	-3.4622152	0.1794328	2.8019240
H	-4.6542937	1.2608900	2.0668473
H	-1.9372771	1.8679409	2.1170133
H	-2.9516380	2.3890673	0.7613567
H	-2.1126388	-1.5212307	0.8046823
H	-4.6067476	0.0214287	-0.0371474
H	-4.4827524	-1.3020741	1.1306335
C	5.1673888	0.9084433	0.7923662
H	5.7117090	0.1321372	0.2217112
O	3.9321550	0.9462618	0.7644487
C	6.0300874	1.8653293	1.5664453
H	6.7167166	2.3885235	0.8875822
H	5.4126703	2.5933523	2.0968747
H	6.6525092	1.3158702	2.2851240
