31
-0.00329221 (energy)
C	1.9843658	-2.3861118	0.3267935
O	2.0535177	-3.1941766	1.2484328
O	2.9510670	-1.4314094	0.1213642
H	2.6743233	-0.8580711	-0.6352536
N	0.7503347	-1.1214697	-1.4521704
C	-0.1181457	1.1406611	-1.5902441
H	0.1013909	1.2397037	-2.6457024
H	-0.5578788	2.0029106	-1.1056120
C	0.1594592	0.0314318	-0.8709009
C	-0.1125684	-0.0239499	0.6170703
H	0.8092519	-0.1451003	1.1982869
H	-0.5855529	0.9060459	0.9383940
H	-0.7820192	-0.8500307	0.8856364
C	0.5594468	-2.8497058	-3.1021495
C	0.6736308	-1.3239539	-2.9252482
C	0.8792559	-2.4094331	-0.7309974
C	1.2520553	-3.4206192	-1.8514974
H	-0.4959442	-3.1467245	-3.1180239
H	1.0186244	-3.1991056	-4.0314115
H	-0.2009015	-0.7980523	-3.3236639
H	1.5638658	-0.9170112	-3.4224096
H	-0.0491150	-2.7143321	-0.2342819
H	2.3399513	-3.4330565	-1.9906566
H	0.9355972	-4.4333789	-1.5933009
C	2.9376805	3.0501008	-0.8481882
H	2.7308431	3.3988319	0.1814660
O	3.1848968	1.8577407	-1.0607291
C	2.8917547	4.1115764	-1.9113150
H	3.6209328	4.9017274	-1.6876913
H	3.1065695	3.6805340	-2.8914342
H	1.9026326	4.5882540	-1.9264581
