31
-0.00319164 (energy)
C	2.3160169	-0.6206384	0.7333065
O	3.4440178	-0.3568583	1.1397590
O	2.0205401	-1.8207368	0.1327847
H	1.0769781	-1.8033834	-0.1624510
N	0.0000000	0.0000000	0.0000000
C	-1.0556527	0.2241010	-2.1739215
H	-2.0121765	-0.1486630	-1.8302545
H	-0.9870305	0.4832225	-3.2226611
C	0.0297435	0.3405994	-1.3781500
C	1.3586009	0.8083326	-1.9317636
H	2.1304390	0.0333174	-1.8552121
H	1.2476205	1.0604432	-2.9881627
H	1.7335721	1.6987397	-1.4128481
C	-0.9914163	0.4184874	2.1418756
C	-1.3051536	-0.0650162	0.7135745
C	1.1139292	0.3055215	0.9281050
C	0.4948862	0.0667155	2.3340760
H	-1.1344517	1.5035100	2.2096183
H	-1.6333059	-0.0504375	2.8932340
H	-2.0315801	0.5831010	0.2112173
H	-1.7055519	-1.0872026	0.7032511
H	1.4722502	1.3375712	0.8384302
H	0.6038512	-0.9889583	2.6110548
H	0.9971790	0.6666466	3.0958357
C	3.3875218	4.7027230	1.4337261
H	4.4045761	4.5448139	1.8402332
O	2.8138077	3.7907234	0.8278208
C	2.7989670	6.0642797	1.6763052
H	3.4434141	6.8378011	1.2376715
H	1.7986346	6.1310138	1.2433405
H	2.7489129	6.2673933	2.7542907
