31
-0.00298086 (energy)
C	1.9386035	1.5891492	-0.0573219
O	2.7552430	2.3403583	0.4679919
O	1.6576286	1.6443945	-1.4012602
H	0.9404455	0.9938935	-1.6019369
N	0.0000000	0.0000000	0.0000000
C	-2.3633370	0.2358437	-0.4995746
H	-2.4515115	-0.7613256	-0.9117354
H	-3.2592390	0.8432726	-0.5094411
C	-1.2075484	0.7466821	-0.0219701
C	-1.1321909	2.1715133	0.4833038
H	-0.4544163	2.7857640	-0.1213121
H	-2.1220509	2.6297271	0.4377769
H	-0.7861499	2.2250512	1.5225780
C	1.1233901	-1.9616286	0.7972936
C	-0.0526138	-1.4860217	-0.0762416
C	1.2217595	0.4670718	0.6962100
C	2.1271477	-0.7961976	0.7338841
H	0.7856196	-2.1133060	1.8293921
H	1.5527936	-2.9038152	0.4446618
H	-1.0166153	-1.8398940	0.3053207
H	0.0415555	-1.8274713	-1.1153925
H	1.0222516	0.8248957	1.7129306
H	2.7197235	-0.8534030	-0.1873212
H	2.8205140	-0.7623809	1.5768508
C	5.5253633	6.2712979	1.5168328
H	5.6211907	6.2670647	2.6192765
O	5.6434452	7.3292922	0.8885677
C	5.2514889	4.9343868	0.8869602
H	4.3207905	4.5115065	1.2882326
H	5.1726174	5.0318655	-0.1978687
H	6.0541070	4.2278121	1.1366997
