31
-0.00201843 (energy)
C	-1.9843657	2.3861120	0.3267930
O	-2.0535176	3.1941769	1.2484322
O	-2.9510669	1.4314096	0.1213639
H	-2.6743232	0.8580711	-0.6352538
N	-0.7503346	1.1214695	-1.4521706
C	0.1181457	-1.1406614	-1.5902440
H	-0.1013909	-1.2397041	-2.6457022
H	0.5578787	-2.0029108	-1.1056117
C	-0.1594592	-0.0314319	-0.8709009
C	0.1125684	0.0239500	0.6170703
H	-0.8092519	0.1451005	1.1982868
H	0.5855528	-0.9060458	0.9383941
H	0.7820193	0.8500308	0.8856363
C	-0.5594465	2.8497053	-3.1021500
C	-0.6736306	1.3239535	-2.9252484
C	-0.8792557	2.4094330	-0.7309978
C	-1.2520550	3.4206190	-1.8514979
H	0.4959444	3.1467239	-3.1180244
H	-1.0186242	3.1991050	-4.0314121
H	0.2009016	0.7980518	-3.3236640
H	-1.5638657	0.9170107	-3.4224098
H	0.0491151	2.7143321	-0.2342824
H	-2.3399511	3.4330563	-1.9906572
H	-0.9355970	4.4333787	-1.5933016
C	3.4863963	-1.3119734	-4.0128254
H	3.8530025	-2.3276854	-4.2547180
O	2.9437140	-0.6248607	-4.8853987
C	3.7004248	-0.8690291	-2.5925895
H	4.7707326	-0.8905569	-2.3475902
H	3.3100297	0.1399560	-2.4438705
H	3.2031988	-1.5627616	-1.9017097
