31
-0.00177998 (energy)
C	4.4839032	-0.2209960	1.0477239
O	5.4518255	-0.8889346	1.4000788
O	3.9471946	0.7605419	1.8456565
H	3.1498208	1.1338894	1.3955664
N	2.4627979	0.2141672	-0.3709483
C	0.0775781	-0.0248884	0.0087068
H	-0.1785635	0.8469230	-0.5797949
H	-0.7451462	-0.5505812	0.4761244
C	1.3457929	-0.4468894	0.2048070
C	1.6457276	-1.6366492	1.0911678
H	2.2412377	-1.3552385	1.9677626
H	0.7110224	-2.0699057	1.4523747
H	2.1949449	-2.4223859	0.5585521
C	3.5445698	0.9227480	-2.3892030
C	2.2650039	1.1008130	-1.5506001
C	3.8350229	-0.3435701	-0.3323715
C	4.6146011	0.5313708	-1.3540042
H	3.4068148	0.1122259	-3.1147369
H	3.8102961	1.8266621	-2.9448838
H	1.3687589	0.7896171	-2.0983375
H	2.1200327	2.1426802	-1.2362971
H	3.8741656	-1.3992642	-0.6248437
H	5.0046596	1.4254815	-0.8525482
H	5.4620225	-0.0123606	-1.7767644
C	1.0881018	-6.0176950	0.7016427
H	0.9326685	-5.9918796	-0.3936914
O	1.3475987	-4.9765876	1.3154576
C	0.9600556	-7.3720791	1.3406466
H	1.6841562	-8.0686760	0.8973881
H	1.1279642	-7.3040976	2.4175691
H	-0.0380224	-7.7875416	1.1481772
