31
-0.00526922 (energy)
C	-0.3725631	0.0352324	0.2625107
O	0.5929877	0.3920068	0.9315348
O	-0.2415668	-0.3824047	-1.0400209
H	-1.1412588	-0.5718983	-1.4039177
N	-2.8266371	-0.0845795	-0.2375198
C	-4.2692499	1.0916911	-1.7950224
H	-4.8945345	0.2281672	-1.9830216
H	-4.5167194	1.9944730	-2.3385766
C	-3.2054423	1.0760232	-0.9625701
C	-2.3300358	2.2986412	-0.7893846
H	-1.3040793	2.1204325	-1.1327470
H	-2.7351979	3.1259130	-1.3753202
H	-2.2752644	2.6245231	0.2563222
C	-3.4759903	-1.7353285	1.3746332
C	-3.8207609	-1.1706724	-0.0162469
C	-1.7922651	-0.0681169	0.8233121
C	-1.9735284	-1.4396333	1.5325957
H	-4.0481223	-1.2059643	2.1458405
H	-3.7044633	-2.8014329	1.4622344
H	-4.8336228	-0.7546969	-0.0507353
H	-3.7459779	-1.9346031	-0.8011721
H	-1.9274736	0.7524266	1.5374474
H	-1.3786205	-2.2034218	1.0170867
H	-1.6371836	-1.3969797	2.5706449
C	2.9298397	-2.7921982	-0.6783627
H	2.5572221	-2.7480261	-1.7194140
O	2.7884476	-3.8242063	-0.0127956
C	3.5915527	-1.5399506	-0.1752822
H	2.8920375	-0.6951275	-0.2300485
H	3.9270710	-1.6724965	0.8554631
H	4.4484550	-1.2836343	-0.8123329
