31
-0.00523515 (energy)
C	-1.1947929	1.1461162	-1.8830168
O	-1.8713762	2.0521969	-2.3609524
O	-1.0673363	-0.0729479	-2.5041502
H	-0.5266700	-0.6671962	-1.9276752
N	0.0000000	0.0000000	0.0000000
C	-0.5536892	-1.8880577	1.4209943
H	0.4685841	-2.2397660	1.4780608
H	-1.2966863	-2.4768492	1.9434764
C	-0.9300983	-0.7986528	0.7164222
C	-2.3852868	-0.3928865	0.6220575
H	-2.7599260	-0.4458739	-0.4070590
H	-2.9937857	-1.0653024	1.2298745
H	-2.5548473	0.6291073	0.9818899
C	1.9612078	1.3733795	0.1147257
C	1.4451145	-0.0579750	0.3537296
C	-0.3598904	1.3013316	-0.6103898
C	1.0160632	1.9327944	-0.9639477
H	1.8731592	1.9616933	1.0358426
H	3.0098527	1.3941024	-0.1957040
H	1.5556681	-0.3647866	1.3995588
H	1.9703257	-0.7945601	-0.2682720
H	-0.9154382	1.9535005	0.0734263
H	1.3319786	1.5964109	-1.9589760
H	0.9595123	3.0232079	-0.9810875
C	2.9191027	-2.1386872	-3.5828193
H	3.4933728	-2.9812676	-3.1528715
O	2.7668525	-1.0975235	-2.9341204
C	2.3689253	-2.3690786	-4.9624216
H	1.7044444	-3.2434423	-4.9627618
H	1.8194447	-1.4903085	-5.3065307
H	3.1854035	-2.5913096	-5.6622716
