31
-0.00513493 (energy)
C	-0.4266190	-0.0008535	-0.1641704
O	0.2269803	-0.8121818	-0.8135734
O	0.1295600	0.7321549	0.8563847
H	-0.5788724	1.2802472	1.2753031
N	-2.5753446	0.9856179	0.6705253
C	-3.7814861	0.8174570	2.7699307
H	-4.1299625	1.8419004	2.7370998
H	-4.0700921	0.2368868	3.6367365
C	-2.9964942	0.2651460	1.8193261
C	-2.4880445	-1.1542920	1.9527394
H	-1.3948204	-1.1930005	2.0276092
H	-2.8971283	-1.6069330	2.8580691
H	-2.7821981	-1.7816190	1.1026595
C	-3.2450142	2.1868453	-1.2927028
C	-3.3287159	2.1973805	0.2451964
C	-1.8849130	0.3439383	-0.4727648
C	-1.9395561	1.4261766	-1.5875613
H	-4.1010796	1.6437282	-1.7104324
H	-3.2482811	3.1940818	-1.7192192
H	-4.3629093	2.1308800	0.6003525
H	-2.8848429	3.1045002	0.6757786
H	-2.3794663	-0.5752021	-0.8076680
H	-1.0775446	2.0977405	-1.4928195
H	-1.9048442	0.9743998	-2.5811337
C	2.8741031	-1.7972378	2.1768883
H	1.8570488	-2.1795009	1.9669875
O	3.4478170	-2.1064014	3.2272608
C	3.4626580	-0.9101517	1.1158701
H	2.8182109	-0.0356517	0.9546729
H	4.4629904	-0.5807260	1.4046446
H	3.5127124	-1.4474735	0.1595265
