31
-0.00512754 (energy)
C	-1.1501066	2.0795148	-1.4492466
O	-2.2011303	2.6991819	-1.3131158
O	-0.0365509	2.6503322	-2.0169880
H	0.6748360	1.9660922	-2.0763065
N	0.2055907	-0.0259182	-1.5761390
C	1.1309376	-1.3033728	-3.4206989
H	2.0230913	-1.5843767	-2.8756332
H	1.0584206	-1.6546808	-4.4419881
C	0.1538022	-0.5269352	-2.9037270
C	-1.0405794	-0.1147002	-3.7371773
H	-1.0829619	0.9710316	-3.8842585
H	-0.9777580	-0.5791577	-4.7231734
H	-1.9897208	-0.4225453	-3.2821352
C	0.3251887	-0.5575311	0.7581174
C	1.0867312	-0.6869187	-0.5743850
C	-0.9394466	0.6563086	-0.9288238
C	-0.5358611	0.7048652	0.5717620
H	-0.3167794	-1.4335762	0.9089293
H	0.9963879	-0.4833730	1.6186082
H	1.2442975	-1.7335275	-0.8570455
H	2.0695250	-0.1991098	-0.5363158
H	-1.8840463	0.1142797	-1.0533154
H	0.0606418	1.6048476	0.7647742
H	-1.4152777	0.7406465	1.2181672
C	3.3886115	3.0107465	1.3381027
H	3.8874651	2.6641295	2.2630809
O	3.1146019	2.2042760	0.4422589
C	3.0905623	4.4826723	1.2774454
H	4.0192379	5.0603633	1.3768513
H	2.6004550	4.7349440	0.3347203
H	2.4457446	4.7722871	2.1177707
