31
-0.00463378 (energy)
C	0.2968639	-2.9481273	0.9790038
O	0.1962207	-3.3809529	2.1234261
O	1.5028309	-2.9000342	0.3221174
H	1.3668211	-2.4721033	-0.5588769
N	-0.5162178	-1.6344254	-0.9958254
C	0.0333729	0.5583614	-1.8791119
H	-0.0825359	0.2532985	-2.9113423
H	0.3322643	1.5848481	-1.7097118
C	-0.1402521	-0.2752140	-0.8303434
C	0.0987579	0.1934952	0.5889207
H	0.9242718	-0.3478769	1.0660851
H	0.3574034	1.2541324	0.5863356
H	-0.7876104	0.0667571	1.2221585
C	-2.1547973	-3.1670065	-1.8395797
C	-1.1611314	-2.0698634	-2.2652039
C	-0.9026490	-2.5057573	0.1386403
C	-1.5400872	-3.7443376	-0.5517133
H	-3.1337171	-2.7223624	-1.6243364
H	-2.2962063	-3.9270625	-2.6133825
H	-1.6663564	-1.2173826	-2.7322567
H	-0.4124233	-2.4449655	-2.9751511
H	-1.6239094	-2.0310870	0.8139430
H	-0.7583589	-4.4737696	-0.7963918
H	-2.2632988	-4.2350522	0.1030062
C	3.6469726	-0.8558913	2.5291760
H	3.7657873	-1.8031262	1.9695225
O	3.5264292	0.2129164	1.9199705
C	3.6461339	-0.9858859	4.0265667
H	4.5847741	-1.4436567	4.3663424
H	3.5243924	-0.0070403	4.4951999
H	2.8343526	-1.6522025	4.3472636
