31
-0.00493121 (energy)
C	-0.2850375	0.1022809	-0.3424159
O	-0.8479338	-0.7118030	0.3839345
O	0.9847216	0.5569866	-0.0795022
H	1.2229716	1.2392071	-0.7544737
N	-0.2581130	1.8830238	-2.1073789
C	-0.0782353	4.3021942	-2.0311066
H	0.5016428	4.3618784	-2.9433440
H	-0.2826282	5.2379748	-1.5268788
C	-0.5115964	3.1396286	-1.4967394
C	-1.2641805	3.1151337	-0.1836736
H	-0.7141802	2.5723215	0.5942065
H	-1.4161840	4.1363363	0.1711443
H	-2.2498480	2.6439932	-0.2795260
C	-0.5421297	0.5121385	-4.0530606
C	0.0898506	1.8250293	-3.5538918
C	-0.8892159	0.6236587	-1.6477384
C	-0.5875797	-0.3779353	-2.7978784
H	-1.5583825	0.7012865	-4.4188139
H	0.0269772	0.0570158	-4.8688012
H	-0.3233344	2.7003839	-4.0668701
H	1.1785744	1.8378222	-3.6946297
H	-1.9708652	0.7191865	-1.4978338
H	0.3881234	-0.8500178	-2.6300109
H	-1.3392858	-1.1687770	-2.8426065
C	3.5617449	-2.3489317	-2.2821422
H	3.9283510	-3.3861209	-2.1620529
O	3.0190625	-2.0016946	-3.3370992
C	3.7757734	-1.4469509	-1.0990528
H	4.8460812	-1.3833858	-0.8614658
H	3.3853783	-0.4479501	-1.3043959
H	3.2785474	-1.8625514	-0.2125676
