31
-0.00449859 (energy)
C	-0.4292183	-0.0119131	-0.1567996
O	-0.1664043	-1.1199163	0.3019239
O	0.4850599	1.0138736	-0.1516853
H	0.0533343	1.8248201	-0.5174083
N	-2.0134276	1.7742231	-0.9228697
C	-2.8376194	3.8183204	0.0934634
H	-2.8672563	4.3598489	-0.8434819
H	-3.1325516	4.3678195	0.9782081
C	-2.4261247	2.5362092	0.2019628
C	-2.3459581	1.8521457	1.5498333
H	-1.3173254	1.5736153	1.8078610
H	-2.7096221	2.5278651	2.3263687
H	-2.9535575	0.9399923	1.5885728
C	-2.6226416	0.8699217	-3.0575281
C	-2.4351787	2.1912043	-2.2885542
C	-1.7502125	0.3176397	-0.8547271
C	-1.6716446	-0.1103366	-2.3472619
H	-3.6593861	0.5256376	-2.9629164
H	-2.4003085	0.9707137	-4.1237650
H	-3.3659647	2.7655877	-2.2266245
H	-1.6757535	2.8339112	-2.7527648
H	-2.5444601	-0.2351606	-0.3398050
H	-0.6465010	0.0193187	-2.7151042
H	-1.9427525	-1.1605854	-2.4736394
C	3.2161532	2.4734070	1.3363206
H	3.5418795	2.5726973	2.3892340
O	2.5589631	3.3745329	0.8033241
C	3.6283672	1.2015226	0.6496855
H	3.2300678	0.3335311	1.1918988
H	3.2662840	1.1885724	-0.3805111
H	4.7222272	1.1055068	0.6577222
