31
-0.00444294 (energy)
C	0.4266190	0.0569517	-0.1539778
O	-0.2269803	1.0414596	-0.4867266
O	-0.1295600	-0.9809013	0.5543268
H	0.5788725	-1.6392181	0.7605229
N	2.5753447	-1.1555108	0.2929867
C	3.7814862	-1.7155299	2.3232970
H	4.1299627	-2.6669629	1.9420658
H	4.0700922	-1.4664371	3.3363946
C	2.9964943	-0.8714015	1.6189221
C	2.4880445	0.4168040	2.2297658
H	1.3948204	0.4275710	2.3133595
H	2.8971283	0.5325066	3.2353098
H	2.7821981	1.2970429	1.6455103
C	3.2450143	-1.6128322	-1.9626882
C	3.3287160	-2.1487243	-0.5211388
C	1.8849130	-0.1615012	-0.5618874
C	1.9395561	-0.7971899	-1.9796006
H	4.1010796	-0.9595971	-2.1694687
H	3.2482812	-2.4134478	-2.7079775
H	4.3629094	-2.2077047	-0.1646567
H	2.8848430	-3.1484057	-0.4267770
H	2.3794663	0.8167519	-0.5622291
H	1.0775447	-1.4606572	-2.1202607
H	1.9048442	-0.0328369	-2.7587366
C	5.1095709	3.3464561	-0.1790363
H	4.9554731	3.3940886	0.9157549
O	4.6795657	2.3836361	-0.8240831
C	5.8546414	4.5064292	-0.7777102
H	6.8478161	4.5952325	-0.3175310
H	5.9603525	4.3768978	-1.8568874
H	5.3235862	5.4445938	-0.5688064
