31
-0.00425121 (energy)
C	1.5295440	-2.1684552	1.6420500
O	1.7528903	-3.3356350	1.3338660
O	0.6485966	-1.8353182	2.6426101
H	0.5802319	-0.8499685	2.6893722
N	1.5412263	0.3013188	1.2096792
C	-0.1692760	1.8813126	0.5253106
H	0.2278433	2.6865834	1.1301521
H	-1.0669373	2.0988980	-0.0391078
C	0.3743379	0.6455503	0.4775138
C	-0.2638743	-0.4584150	-0.3380045
H	-0.6068146	-1.2877928	0.2918902
H	-1.1331267	-0.0662643	-0.8694870
H	0.4246699	-0.8741309	-1.0835168
C	3.8607878	0.7584709	1.6050465
C	2.4525873	1.3766470	1.6891915
C	2.2621945	-0.9789684	1.0182891
C	3.6116059	-0.7530614	1.7565654
H	4.3051891	0.9715691	0.6255473
H	4.5366168	1.1503098	2.3706638
H	2.3521047	2.2577514	1.0460177
H	2.1957351	1.6787510	2.7129349
H	2.4388586	-1.2146843	-0.0375470
H	3.5018247	-1.0168592	2.8155255
H	4.4031723	-1.3768550	1.3360923
C	3.5596504	-1.2629789	-3.0203430
H	3.4725514	-2.2143660	-2.4618995
O	3.4792881	-0.1839502	-2.4226381
C	3.7743466	-1.4005683	-4.5015765
H	2.9456350	-1.9625722	-4.9526148
H	3.8487124	-0.4169247	-4.9700761
H	4.6901302	-1.9735226	-4.6987495
