31
-0.00573687 (energy)
C	-0.4002976	0.1634802	0.2337177
O	0.4703996	1.0376669	0.1880004
O	-0.2120957	-1.0883125	-0.3160456
H	0.6668055	-1.1427492	-0.7506671
C	-3.7676506	0.1707786	-2.3060726
H	-4.1051539	-0.8581007	-2.3234557
H	-3.9937813	0.7721283	-3.1775981
C	-3.0979882	0.7098596	-1.2622323
C	-2.6088937	2.1436832	-1.2918552
H	-1.5193271	2.2190621	-1.1971194
H	-2.8947318	2.6149050	-2.2346778
H	-3.0480082	2.7263030	-0.4715731
C	-3.3301047	-1.3985396	1.7467973
C	-3.4847911	-1.2883207	0.2215332
N	-2.8714836	0.0129388	-0.0671551
C	-1.7775583	0.3144775	0.8683362
C	-1.9747854	-0.7083656	2.0360247
H	-4.1465358	-0.8586425	2.2389461
H	-3.3465309	-2.4342819	2.0988834
H	-4.5309543	-1.2767283	-0.1001627
H	-2.9732773	-2.1124056	-0.3005833
H	-1.8316015	1.3490200	1.2190893
H	-1.1663986	-1.4448002	2.0261875
H	-1.9583090	-0.2043462	3.0059643
C	3.3637279	0.8424563	-1.1267823
H	3.4946682	1.7893643	-0.5692855
O	3.2998226	-0.2314207	-0.5179173
C	3.2753307	0.9793059	-2.6209497
H	4.1836289	1.4580293	-3.0106486
H	3.1472766	0.0003140	-3.0875906
H	2.4332034	1.6300940	-2.8913378
