31
-0.00303108 (energy)
C	0.4727658	-0.0374775	-0.1291351
O	0.2777136	0.9848099	0.5351610
O	-0.5449318	-0.9175440	-0.4364126
H	-1.3881971	-0.6213195	-0.0296187
C	2.2400976	-3.5049124	1.4966225
H	1.9203067	-4.3106022	0.8474684
H	2.4679746	-3.7671923	2.5220954
C	2.3626808	-2.2248893	1.0780858
C	2.7766592	-1.1186332	2.0271697
H	2.0144115	-0.3362290	2.1200902
H	2.9549219	-1.5300435	3.0229768
H	3.7010013	-0.6337718	1.6871236
C	2.3338923	-1.9787314	-2.5950684
C	2.0235341	-2.8189204	-1.3459620
N	2.1853033	-1.8458132	-0.2598421
C	1.8158268	-0.4889562	-0.6901538
C	1.7728128	-0.5772002	-2.2518726
H	3.4180331	-1.9300414	-2.7451585
H	1.8830666	-2.3901330	-3.5030891
H	2.7280036	-3.6443203	-1.2027220
H	1.0051431	-3.2374359	-1.3790149
H	2.5458554	0.2479659	-0.3434107
H	0.7404397	-0.4878617	-2.6013668
H	2.3524965	0.2304898	-2.7065084
C	-1.1716631	5.0634215	-1.1505716
H	-1.6772236	5.1441196	-0.1695114
O	-1.7586892	5.4126629	-2.1808352
C	0.2275633	4.5158342	-1.1132663
H	0.2283366	3.5117550	-0.6684392
H	0.6477134	4.4715188	-2.1202851
H	0.8625027	5.1453216	-0.4757626
