31
-0.00298772 (energy)
C	2.5837374	-2.1152773	-0.0210799
O	3.4287491	-2.0408058	0.8760352
O	2.8790551	-1.8085094	-1.3338349
H	3.8104260	-1.5077516	-1.4139566
C	-0.4021770	0.8101497	-0.5830823
H	-0.7064311	0.7020329	-1.6167862
H	-0.5225816	1.7907767	-0.1401527
C	0.1032191	-0.2093597	0.1475572
C	0.5531839	-0.0085063	1.5804322
H	1.6170273	-0.2314991	1.7229929
H	0.3869272	1.0282293	1.8807752
H	-0.0097898	-0.6569938	2.2642850
C	-0.4831161	-3.4676385	-1.4628198
C	-0.4299108	-1.9381002	-1.6049066
N	0.1821495	-1.5220756	-0.3379934
C	1.1288703	-2.5303552	0.1618405
C	0.8007168	-3.8144091	-0.6700990
H	-1.3735236	-3.7529224	-0.8918149
H	-0.5199684	-3.9801607	-2.4287181
H	-1.4219585	-1.4846005	-1.6957884
H	0.1702966	-1.6303344	-2.4757677
H	0.9995219	-2.6959043	1.2351947
H	1.6222302	-4.0319353	-1.3583723
H	0.6704244	-4.6818448	-0.0176657
C	6.1943544	0.3005981	-2.8382127
H	5.3722360	0.6525331	-3.4900149
O	6.0186259	0.1999055	-1.6187896
C	7.4814875	-0.0271830	-3.5417225
H	7.8534935	0.8554236	-4.0789971
H	8.2334461	-0.3648071	-2.8253812
H	7.3119458	-0.8083233	-4.2946426
