31
-0.00571713 (energy)
C	3.3206281	0.3469319	0.0600690
O	3.8206676	1.4107885	-0.3175232
O	3.4991919	-0.8336185	-0.6320729
H	4.0312202	-0.6781254	-1.4426865
C	-0.7558452	-0.5776995	-0.5030259
H	-0.8050962	-1.6584795	-0.4551466
H	-1.5182785	-0.0811151	-1.0898928
C	0.1951296	0.1461006	0.1297608
C	0.2527421	1.6552706	0.0071733
H	1.1929404	2.0064165	-0.4338888
H	-0.5644185	2.0086571	-0.6253094
H	0.1556554	2.1339578	0.9903127
C	1.9882820	-1.8553747	2.6461441
C	1.0766675	-1.8365605	1.4087632
N	1.1407687	-0.4324806	0.9877952
C	2.4484714	0.1653161	1.2964938
C	3.1027861	-0.8363559	2.3050215
H	1.4230465	-1.5237896	3.5241072
H	2.3923020	-2.8498905	2.8575748
H	0.0397836	-2.0998839	1.6403072
H	1.4388350	-2.5209470	0.6252980
H	2.3343745	1.1633109	1.7291771
H	3.9466250	-1.3446342	1.8301415
H	3.4792585	-0.3138174	3.1883743
C	5.2527327	-3.6324290	-3.3936386
H	4.4947262	-4.2244144	-2.8463158
O	5.3959918	-2.4296067	-3.1472496
C	6.0521336	-4.3923022	-4.4147306
H	5.3835127	-4.8314662	-5.1671454
H	6.7725963	-3.7332907	-4.9038258
H	6.5812078	-5.2266525	-3.9354047
