31
-0.0029747 (energy)
C	-0.0227999	-2.1820674	-0.8584077
O	0.3336623	-2.9796997	-1.7308317
O	-0.8904923	-2.5410628	0.1529661
H	-1.1801763	-3.4726528	0.0409404
C	-2.9279788	0.7967333	-1.5485786
H	-3.3084951	1.0470914	-0.5660658
H	-3.5999203	0.9480200	-2.3839949
C	-1.6796468	0.3202911	-1.7567346
C	-1.1971093	-0.0544845	-3.1433281
H	-0.9171670	-1.1116031	-3.2204306
H	-1.9847756	0.1358321	-3.8754683
H	-0.3167389	0.5368680	-3.4268425
C	0.4743714	0.7956533	1.1907593
C	-0.9502705	0.7485920	0.6157050
N	-0.7324007	0.2053699	-0.7297339
C	0.4073995	-0.7234457	-0.7597213
C	1.1646835	-0.4491854	0.5818841
H	0.9750562	1.7114243	0.8576871
H	0.4886953	0.7788969	2.2846106
H	-1.4105500	1.7386415	0.5380853
H	-1.6123622	0.1075862	1.2191236
H	1.0427369	-0.5411417	-1.6311215
H	1.0566593	-1.3064867	1.2521730
H	2.2321784	-0.2934389	0.4050013
C	4.5708716	-3.2935492	0.5905861
H	4.9374777	-3.2317080	-0.4516991
O	4.0281891	-2.3149165	1.1157393
C	4.7849002	-4.6152922	1.2734223
H	5.8552080	-4.8603076	1.2947653
H	4.3945051	-4.5865435	2.2929035
H	4.2876742	-5.4161414	0.7101992
