31
-0.00297124 (energy)
C	1.7141907	2.2902557	-1.7224461
O	2.5866064	1.9188102	-2.5132212
O	2.0170593	2.9904256	-0.5723690
H	2.9888057	3.1021459	-0.4854543
C	-0.1396747	-0.3285553	1.0151927
H	-0.5233893	0.3136636	1.7982134
H	0.1037869	-1.3456777	1.2953746
C	0.0352405	0.0866741	-0.2598163
C	0.6108214	-0.8316181	-1.3187719
H	1.5438647	-0.4475001	-1.7473692
H	0.8216265	-1.8120577	-0.8863748
H	-0.0960123	-0.9683241	-2.1475226
C	-1.7088434	3.2619275	-0.9151190
C	-1.1521001	2.2747062	0.1231187
N	-0.3615810	1.3558357	-0.7036339
C	0.2181184	2.0400256	-1.8692131
C	-0.5721551	3.3876406	-1.9586798
H	-2.6077306	2.8402011	-1.3781606
H	-1.9734688	4.2293730	-0.4780616
H	-1.9369680	1.7143814	0.6409013
H	-0.5361482	2.7844345	0.8808443
H	0.1045575	1.4398118	-2.7764473
H	0.0856695	4.2225891	-1.7016786
H	-0.9480145	3.5554676	-2.9714255
C	4.6541704	-0.6207900	-3.7535645
H	4.7391817	0.4638855	-3.5514879
O	4.4969561	-1.4147796	-2.8192860
C	4.7436161	-1.0173925	-5.2005559
H	5.7011026	-0.6862130	-5.6243325
H	4.6501917	-2.1002586	-5.3066198
H	3.9527468	-0.5203567	-5.7778726
