31
-0.00277202 (energy)
C	1.6064376	-1.6030139	-2.4495400
O	1.2340613	-1.4454676	-3.6161253
O	1.4821327	-2.8128378	-1.7972218
H	1.0424146	-3.4713608	-2.3780161
C	-0.6161705	-0.2153093	0.8555990
H	-0.2817070	-0.8200808	1.6893789
H	-1.6220654	0.1809920	0.9141998
C	0.1598891	0.0536741	-0.2186626
C	-0.3580793	0.8729397	-1.3833316
H	-0.3509242	0.3149659	-2.3269556
H	-1.3860450	1.1866383	-1.1895597
H	0.2516677	1.7734517	-1.5330545
C	3.6971255	-0.7459915	0.4153548
C	2.2287677	-0.9249476	0.8329752
N	1.5023498	-0.3416818	-0.3005509
C	2.2303531	-0.5309209	-1.5642525
C	3.6749413	-0.9372777	-1.1208095
H	4.0307771	0.2660833	0.6695992
H	4.3657709	-1.4582258	0.9079319
H	1.9767516	-0.3777580	1.7468414
H	1.9749832	-1.9858640	0.9860034
H	2.2298171	0.3853331	-2.1615004
H	3.8609556	-1.9848675	-1.3735469
H	4.4272730	-0.3299171	-1.6309076
C	4.0547568	2.0526454	3.9504774
H	4.1473855	2.9961005	3.3796051
O	3.8088502	0.9937874	3.3619522
C	4.2468545	2.1749112	5.4361516
H	3.5134507	2.8767388	5.8552025
H	4.1387836	1.2004301	5.9170715
H	5.2408523	2.5866989	5.6557251
