31
-0.00277065 (energy)
C	0.4645474	-0.1605328	-0.0035936
O	-0.1025260	-0.4302691	-1.0666440
O	-0.1770984	0.5041943	1.0216251
H	-1.0934441	0.7381910	0.7572717
C	3.1966560	3.0307230	0.3720694
H	3.2060806	3.2658261	1.4291602
H	3.4382285	3.8375946	-0.3083087
C	2.9055613	1.8002375	-0.1073343
C	2.8655929	1.5204649	-1.5959816
H	1.8802631	1.1789086	-1.9340299
H	3.1125358	2.4275229	-2.1517990
H	3.5910730	0.7434700	-1.8700028
C	3.0137499	-0.7583878	2.5375127
C	2.9309186	0.7327089	2.1738147
N	2.6906601	0.6943060	0.7268992
C	1.9120003	-0.4915751	0.3394498
C	1.9940554	-1.4322547	1.5872445
H	4.0250230	-1.1296585	2.3381545
H	2.7826107	-0.9496059	3.5896567
H	3.8624108	1.2716536	2.3736669
H	2.1168732	1.2397542	2.7156663
H	2.3291962	-0.9632353	-0.5548157
H	1.0146074	-1.4973211	2.0692923
H	2.2937317	-2.4428828	1.2975637
C	-3.1699785	-2.8556133	-4.0329301
H	-3.3377614	-2.1049230	-4.8284777
O	-4.0681261	-3.6491864	-3.7303004
C	-1.8132235	-2.8204200	-3.3871319
H	-1.6333302	-1.8335855	-2.9400939
H	-1.7359423	-3.5915500	-2.6177407
H	-1.0312894	-2.9732716	-4.1427964
