31
-0.0033258 (energy)
C	-0.4002976	-0.2335574	-0.1637093
O	0.4703996	-1.0393879	0.1782405
O	-0.2120957	1.1307732	-0.0752392
H	0.6668055	1.3305763	0.3145530
C	-3.7676506	0.6282440	2.2254091
H	-4.1051539	1.6010197	1.8898463
H	-3.9937813	0.3612394	3.2500489
C	-3.0979882	-0.2353409	1.4288967
C	-2.6088937	-1.5725626	1.9471297
H	-1.5193271	-1.6757972	1.8838883
H	-2.8947318	-1.6929020	2.9942605
H	-3.0480082	-2.4005992	1.3755844
C	-3.3301047	0.7167574	-2.1197813
C	-3.4847911	1.1348567	-0.6488048
N	-2.8714836	0.0108099	0.0675305
C	-1.7775583	-0.5925007	-0.7084115
C	-1.9747854	-0.0307156	-2.1555127
H	-4.1465358	0.0410952	-2.3975941
H	-3.3465309	1.5696162	-2.8048788
H	-4.5309543	1.2339899	-0.3425447
H	-2.9732773	2.0878175	-0.4400295
H	-1.8316015	-1.6846173	-0.6841771
H	-1.1663986	0.6646710	-2.3981443
H	-1.9583090	-0.8360779	-2.8945730
C	3.9445180	-1.4544457	2.8425260
H	3.8135779	-2.5381714	2.6609325
O	4.0084232	-1.0231792	3.9992185
C	4.0329152	-0.5988463	1.6099622
H	3.1246171	-0.7150762	1.0037180
H	4.1609691	0.4510560	1.8817784
H	4.8750426	-0.9235766	0.9845143
