31
-0.00258868 (energy)
C	-0.7260495	-1.7044003	1.4375930
O	-0.7950185	-2.9086805	1.7009535
O	-1.3553548	-0.7480717	2.2083427
H	-1.8617264	-1.1726502	2.9347361
C	-2.9819728	0.0835105	-1.6452367
H	-3.0270799	1.1334794	-1.3838288
H	-3.7990127	-0.3057789	-2.2395538
C	-1.9682060	-0.7277882	-1.2674407
C	-1.9604531	-2.2011393	-1.6211601
H	-1.9499982	-2.8468983	-0.7353282
H	-2.8505996	-2.4486839	-2.2034220
H	-1.0774504	-2.4572002	-2.2210511
C	0.9326668	1.1847249	-0.0505943
C	-0.5670706	1.1709957	-0.3869064
N	-0.8342739	-0.2572330	-0.5906923
C	0.0247345	-1.0947001	0.2598932
C	1.1481478	-0.1222853	0.7507643
H	1.5172198	1.1657118	-0.9769826
H	1.2290349	2.0696986	0.5203558
H	-0.8022697	1.7195684	-1.3044191
H	-1.1720588	1.5930947	0.4311336
H	0.4335260	-1.9395139	-0.3017169
H	1.0337813	0.0681691	1.8215441
H	2.1391615	-0.5550533	0.5904717
C	4.9809093	1.9179454	0.0728489
H	4.7871274	2.0259865	1.1569885
O	4.2908458	1.1496234	-0.6064932
C	6.1073094	2.7529412	-0.4685224
H	7.0431688	2.5067712	0.0507216
H	6.2271098	2.5842503	-1.5407948
H	5.9118701	3.8172602	-0.2818631
