31
-0.00251918 (energy)
C	-2.0328448	1.1669323	-0.0679167
O	-3.1340272	1.4043484	0.4374913
O	-1.6477831	1.7116782	-1.2760658
H	-2.3723164	2.2577022	-1.6518795
C	-1.1723457	-2.4550777	-2.0503996
H	-0.3387253	-2.2242623	-2.7020165
H	-1.8235027	-3.2626847	-2.3603657
C	-1.4142080	-1.7897163	-0.8982470
C	-2.6137127	-2.1175471	-0.0324201
H	-3.2924475	-1.2650003	0.0871422
H	-3.1823461	-2.9360361	-0.4789620
H	-2.3003838	-2.4276257	0.9729686
C	1.4843565	0.2217277	0.1533714
C	0.7733546	-0.5436357	-0.9741044
N	-0.5476923	-0.8099409	-0.3938630
C	-0.9603518	0.2612853	0.5253370
C	0.3568778	1.0577837	0.8065830
H	1.8997311	-0.4898340	0.8754538
H	2.3014451	0.8501990	-0.2132162
H	1.2615945	-1.4925011	-1.2177360
H	0.7078356	0.0562777	-1.8956135
H	-1.3920141	-0.1496084	1.4424306
H	0.3010991	2.0456261	0.3407739
H	0.5073957	1.2004887	1.8799280
C	4.3408048	-3.3790047	0.7012001
H	5.1734271	-2.9923391	1.3191101
O	3.5811386	-2.5934578	0.1234152
C	4.2269093	-4.8762199	0.6344742
H	4.0969109	-5.2903247	1.6432678
H	3.3824786	-5.1677589	0.0063670
H	5.1528528	-5.3077494	0.2317035
