31
-0.0023084 (energy)
C	-2.9825483	-1.7801439	-2.3927280
O	-2.7558345	-2.2153944	-3.5256728
O	-3.6175894	-0.5726408	-2.1846322
H	-3.8124234	-0.1359910	-3.0423637
C	0.0000000	-0.0000000	0.0000000
H	-0.5416647	0.6150668	0.7078810
H	1.0084794	0.3103622	-0.2428127
C	-0.5263289	-1.1086647	-0.5678901
C	0.2503286	-1.9218859	-1.5834762
H	-0.2508561	-1.9690906	-2.5573334
H	1.2371176	-1.4801450	-1.7376850
H	0.3883466	-2.9547263	-1.2380461
C	-3.5660222	-2.2290873	1.1809387
C	-2.5582691	-1.0981318	0.9204006
N	-1.7832606	-1.6173364	-0.2120974
C	-2.6059254	-2.4674413	-1.0857600
C	-3.8768644	-2.7853321	-0.2300369
H	-3.0991028	-3.0015542	1.8018575
H	-4.4681823	-1.8808586	1.6926423
H	-1.8891389	-0.9209617	1.7683131
H	-3.0635565	-0.1501338	0.6767774
H	-2.0691260	-3.3764617	-1.3716885
H	-4.7473162	-2.2762636	-0.6532210
H	-4.0861270	-3.8582891	-0.2221350
C	3.9408978	-0.6904798	1.2744896
H	3.0885303	-0.9884200	1.9142427
O	3.7372599	-0.1208619	0.1964918
C	5.3025941	-1.0275666	1.8141504
H	5.3867917	-2.1103682	1.9769337
H	6.0803797	-0.6988980	1.1216165
H	5.4511005	-0.5478365	2.7906842
