31
-0.00230027 (energy)
C	-3.0990922	-0.3465543	-1.1941813
O	-3.3231721	-1.2171085	-2.0405440
O	-3.1825353	0.9995266	-1.4870091
H	-3.4037628	1.1306570	-2.4347378
C	0.8043536	0.7149050	0.0000002
H	0.7088191	1.7141303	0.4064793
H	1.7675112	0.4489884	-0.4170479
C	-0.2079756	-0.1816704	0.0008876
C	-0.0461755	-1.5578991	-0.6121021
H	-0.7468419	-1.7370163	-1.4359927
H	0.9663187	-1.6736521	-1.0046892
H	-0.2149230	-2.3439712	0.1353904
C	-2.9358660	0.8384478	2.2528772
C	-1.6793411	1.2439772	1.4659861
N	-1.4400338	0.0685531	0.6210758
C	-2.6981573	-0.5987732	0.2542747
C	-3.7543199	-0.0024460	1.2429693
H	-2.6481022	0.2265788	3.1148908
H	-3.4998093	1.7006734	2.6210233
H	-0.8102088	1.4122277	2.1097103
H	-1.8479243	2.1550509	0.8702577
H	-2.6132598	-1.6845680	0.3546179
H	-4.4541029	0.6375978	0.6983872
H	-4.3308670	-0.7955959	1.7262878
C	3.0952573	-1.0828431	4.0914336
H	2.9370111	-0.1307004	4.6326962
O	3.0346682	-2.1580997	4.6981992
C	3.3769803	-0.9510173	2.6209466
H	4.2745787	-0.3385917	2.4618905
H	3.5192114	-1.9350420	2.1692360
H	2.5471987	-0.4325081	2.1225249
