31
-0.00207943 (energy)
C	2.0445019	0.6229412	-1.4113221
O	3.1996543	0.2639310	-1.1640557
O	1.7601459	1.8658065	-1.9395949
H	2.5839036	2.3900715	-2.0439783
C	-0.6356288	1.8909733	1.5884526
H	-1.3689574	2.4952211	1.0689172
H	-0.4694175	2.1189111	2.6337906
C	0.0529028	0.8916462	0.9918554
C	1.0988649	0.0934051	1.7433308
H	2.0957003	0.1780941	1.2950460
H	1.1662656	0.4463261	2.7746270
H	0.8405170	-0.9733603	1.7632816
C	-1.4434136	-0.0640992	-2.2332139
C	-1.3325163	0.9790255	-1.1097820
N	-0.1963090	0.4822790	-0.3255377
C	0.7874770	-0.2055939	-1.1750893
C	0.0245746	-0.4663566	-2.5162028
H	-2.0145826	-0.9284842	-1.8770347
H	-1.9407575	0.3278414	-3.1254181
H	-2.2235611	1.0170859	-0.4752186
H	-1.1505173	1.9896041	-1.5084988
H	1.1273754	-1.1362220	-0.7118105
H	0.4415534	0.1603538	-3.3094775
H	0.1220524	-1.5100843	-2.8263972
C	4.6031988	-4.0886313	-2.5242158
H	3.6517619	-4.1199304	-3.0884596
O	5.4834083	-4.9275824	-2.7464868
C	4.7179332	-2.9836548	-1.5118220
H	3.9092915	-3.0630184	-0.7730074
H	5.6841053	-3.0285230	-1.0047963
H	4.6037712	-2.0081907	-2.0029941
