31
-0.00323114 (energy)
C	3.8624636	1.4007812	0.9533316
O	4.5661240	0.8754715	1.8212705
O	3.1842486	2.5820882	1.1751042
H	3.3255868	2.8901839	2.0967479
C	0.0000000	-0.0000000	0.0000000
H	-0.4969893	0.8454848	-0.4593044
H	-0.6318703	-0.7240702	0.4987741
C	1.3405666	-0.1745562	-0.0327105
C	2.0019155	-1.3516471	0.6550507
H	2.7096038	-1.0417438	1.4328356
H	1.2439896	-1.9812972	1.1259616
H	2.5579612	-1.9663738	-0.0647093
C	2.9434652	2.0104058	-2.5247261
C	1.7041883	1.7064330	-1.6678130
N	2.1964735	0.6704527	-0.7528466
C	3.6236915	0.8520414	-0.4481891
C	4.1270401	1.8548191	-1.5389136
H	3.0204900	1.2752052	-3.3333089
H	2.9117996	3.0075915	-2.9737411
H	0.8695887	1.3079323	-2.2532368
H	1.3513254	2.6006011	-1.1299293
H	4.1608679	-0.0997373	-0.4904452
H	4.3637088	2.8179350	-1.0781342
H	5.0329676	1.4833456	-2.0251161
C	5.8905266	-3.4480368	1.0190164
H	5.7762612	-3.0854403	2.0582709
O	5.1417185	-3.0273444	0.1300189
C	6.9885213	-4.4511740	0.8017574
H	6.8234885	-5.3343180	1.4333172
H	7.0290896	-4.7523857	-0.2471479
H	7.9548889	-4.0239131	1.1007474
