31
-0.00201405 (energy)
C	-0.2608127	-1.9599183	1.6280573
O	0.6806539	-2.5862985	2.1237334
O	-1.4453206	-2.5740777	1.2753620
H	-1.3945339	-3.5396991	1.4466004
C	-0.3166616	-0.7575058	-2.4143107
H	-1.3643598	-0.6124912	-2.6469102
H	0.3330496	-1.0221319	-3.2390299
C	0.1881091	-0.6191448	-1.1674260
C	1.6539866	-0.8679436	-0.8754617
H	1.8078621	-1.6762030	-0.1509955
H	2.1754025	-1.1412652	-1.7952925
H	2.1318850	0.0315364	-0.4659754
C	-2.1675700	1.1019212	1.0780566
C	-1.9474976	0.3404560	-0.2388509
N	-0.5825912	-0.1750844	-0.0838929
C	-0.2713841	-0.4667555	1.3235233
C	-1.3973899	0.2640475	2.1276629
H	-1.7356827	2.1056387	0.9987875
H	-3.2263243	1.2065149	1.3331959
H	-1.9932289	0.9901124	-1.1185869
H	-2.6835715	-0.4685090	-0.3697656
H	0.7239638	-0.1014236	1.5919295
H	-2.0640410	-0.4713473	2.5866756
H	-0.9734259	0.8780172	2.9266534
C	4.5869695	0.8714226	2.1773077
H	5.0509088	-0.1249511	2.3060814
O	4.1498770	1.2134341	1.0727759
C	4.5410350	1.7272027	3.4120581
H	5.5570768	1.8934206	3.7942592
H	4.0691040	2.6876176	3.1942024
H	3.9835949	1.2138295	4.2067416
