31
-0.00194956 (energy)
C	-1.8140701	0.7994621	-1.6216916
O	-1.6008594	1.4886789	-2.6236534
O	-2.9499861	0.9543361	-0.8533467
H	-3.5036490	1.6855057	-1.2043094
C	0.1116867	1.4896104	2.0667783
H	-0.5354153	1.0363870	2.8074881
H	0.7271445	2.3163414	2.3985023
C	0.1746439	1.0659570	0.7841198
C	1.0652368	1.7512031	-0.2323559
H	0.5003392	2.1667756	-1.0749724
H	1.6081425	2.5716459	0.2417695
H	1.8004357	1.0497267	-0.6477396
C	-1.3935288	-2.2373231	0.3567335
C	-1.2255827	-0.9805920	1.2255992
N	-0.5167924	-0.0639883	0.3254784
C	-0.8930935	-0.2865008	-1.0786683
C	-1.6072931	-1.6787892	-1.0712818
H	-0.4784676	-2.8382713	0.3989610
H	-2.2283577	-2.8658860	0.6807181
H	-0.6162288	-1.1583192	2.1173283
H	-2.1976997	-0.5752788	1.5482098
H	-0.0135074	-0.2829496	-1.7287009
H	-2.6748739	-1.5504688	-1.2705985
H	-1.1975297	-2.3339477	-1.8445550
C	3.6796953	-1.4635096	1.3189673
H	3.7723241	-0.7374808	2.1489583
O	3.4337889	-1.0677942	0.1739994
C	3.8717930	-2.9053817	1.6973603
H	3.1383891	-3.1961953	2.4612929
H	3.7637221	-3.5482123	0.8211946
H	4.8657908	-3.0501133	2.1410206
