31
-0.00194661 (energy)
C	2.4279247	0.8150977	-0.0259010
O	3.3697015	0.1890376	-0.5213921
O	2.5723657	1.5725317	1.1186843
H	3.4890512	1.5005950	1.4634150
C	-0.5977509	-1.0476148	2.2468162
H	-1.0178932	-0.2549065	2.8533617
H	-0.6653335	-2.0525517	2.6441167
C	-0.0141313	-0.8278747	1.0469157
C	0.5963728	-1.9594950	0.2452543
H	1.6691619	-1.8193538	0.0683475
H	0.4670947	-2.9043905	0.7773517
H	0.1138535	-2.0512516	-0.7365227
C	-0.7853492	2.5284959	-0.2544235
C	-0.7461548	1.5803486	0.9547031
N	0.0068489	0.4332702	0.4351265
C	1.0026638	0.8481750	-0.5643477
C	0.5798176	2.3047012	-0.9494910
H	-1.6054242	2.2400770	-0.9211697
H	-0.9327731	3.5736636	0.0334779
H	-1.7413529	1.2500710	1.2686739
H	-0.2484949	2.0447067	1.8207713
H	0.9960883	0.1794330	-1.4297768
H	1.3172695	3.0184656	-0.5718311
H	0.5232288	2.4226976	-2.0348317
C	6.3266325	1.5548051	3.0421288
H	6.1683862	0.6099865	3.5960772
O	6.2660434	1.5669592	1.8075466
C	6.6083555	2.7623712	3.8915371
H	7.5059540	2.5939048	4.5014412
H	6.7505867	3.6455765	3.2652022
H	5.7785740	2.9347623	4.5897901
