31
-0.00559607 (energy)
C	-0.4002976	-0.2017790	0.2015813
O	0.4703996	-0.0049552	1.0545484
O	-0.2120957	0.1222606	-1.1266594
H	0.6668055	0.5408264	-1.2557402
C	-3.7676506	2.3006936	-0.2322613
H	-4.1051539	2.1391495	-1.2485282
H	-3.9937813	3.2634020	0.2086138
C	-3.0979882	1.3663220	0.4798909
C	-2.6088937	1.6444757	1.8867874
H	-1.5193271	1.5642686	1.9774719
H	-2.8947318	2.6548015	2.1871309
H	-3.0480082	0.9378265	2.6029965
C	-3.3301047	-1.9631134	-1.0739644
C	-3.4847911	-0.4418822	-1.2302794
N	-2.8714836	0.0683817	0.0010808
C	-1.7775583	-0.8005358	0.4604849
C	-1.9747854	-2.1280993	-0.3440519
H	-4.1465358	-2.3540331	-0.4568088
H	-3.3465309	-2.4897053	-2.0328323
H	-4.5309543	-0.1230606	-1.2747250
H	-2.9732773	-0.0707987	-2.1325092
H	-1.8316015	-0.9663137	1.5402181
H	-1.1663986	-2.2462922	-1.0710066
H	-1.9583090	-2.9957813	0.3207386
C	4.1504297	1.0796669	-1.7828344
H	3.9826467	2.1439765	-1.5304914
O	3.2522822	0.4207952	-2.3187740
C	5.5071847	0.5379861	-1.4294569
H	5.6870780	0.6442571	-0.3513141
H	5.5844660	-0.5138913	-1.7125794
H	6.2891188	1.1159849	-1.9396625
