31
-0.00176037 (energy)
C	1.8662230	3.2150596	1.9925504
O	1.3305164	4.3199597	2.1214711
O	2.8562130	2.9846267	1.0590274
H	3.0219513	3.7943713	0.5287717
C	0.0000000	0.0000000	0.0000000
H	0.8122347	-0.6504800	-0.2999232
H	-0.8972553	-0.0307675	-0.6052269
C	0.0690881	0.8192654	1.0736338
C	-1.0752812	1.7429063	1.4386643
H	-0.7848429	2.7998886	1.4229710
H	-1.8980880	1.6129636	0.7324265
H	-1.4518291	1.5237538	2.4462922
C	2.8926657	-0.0438874	3.2726930
C	2.2361198	-0.1723290	1.8888733
N	1.1603941	0.8233591	1.9535470
C	1.5322416	1.9667551	2.8003747
C	2.7787123	1.4645587	3.6020682
H	2.3312852	-0.6377838	4.0023491
H	3.9310700	-0.3883412	3.2807315
H	1.8048221	-1.1628485	1.7129939
H	2.9500679	0.0411638	1.0776602
H	0.7096685	2.2521172	3.4623177
H	3.6750858	1.9931683	3.2659010
H	2.6588983	1.6532323	4.6721788
C	3.2002057	2.2791303	-3.4421773
H	4.1516426	2.3104294	-4.0064211
O	2.3199962	3.1180813	-3.6644485
C	3.0854715	1.1741539	-2.4297834
H	3.8941131	1.2535176	-1.6909688
H	2.1192993	1.2190221	-1.9227578
H	3.1996335	0.1986897	-2.9209555
