31
-0.00126891 (energy)
C	1.3417268	-1.8628287	0.4779542
O	1.8278085	-2.6301357	1.3142381
O	1.6567417	-1.9451233	-0.8631789
H	2.3187250	-2.6540654	-1.0164946
C	2.6762968	2.1078850	-0.0139910
H	2.3805541	2.3780762	-1.0201402
H	3.5398880	2.6184181	0.3932920
C	2.0193704	1.1856970	0.7253842
C	2.4873375	0.8075126	2.1160403
H	2.7476309	-0.2542029	2.1986213
H	3.3725992	1.3892202	2.3817390
H	1.7082056	1.0106154	2.8622527
C	-1.2784689	0.3855664	-0.7020371
C	0.1154736	0.9979287	-0.9128531
N	0.8355214	0.5721940	0.2925700
C	0.3609140	-0.7343212	0.7726823
C	-0.9931286	-0.9540176	0.0197515
H	-1.8763842	1.0443138	-0.0626561
H	-1.8211349	0.2384991	-1.6405899
H	0.0972238	2.0913935	-0.9584791
H	0.5903878	0.6229317	-1.8332886
H	0.2279745	-0.7317597	1.8582915
H	-0.8862139	-1.7610328	-0.7104660
H	-1.7881301	-1.2340125	0.7159307
C	4.5864646	-0.6487594	-4.2573730
H	4.2607383	-1.6684352	-4.5379912
O	5.2436547	0.0326185	-5.0522550
C	4.1742507	-0.1934161	-2.8855785
H	4.5725501	-0.8781171	-2.1249281
H	4.5363338	0.8188806	-2.6939334
H	3.0803907	-0.2180038	-2.7924170
