31
-0.00100086 (energy)
C	0.7260496	-1.1197866	1.9281421
O	0.7950187	-1.1700249	3.1598586
O	1.3553549	-2.0448916	1.1201815
H	1.8617265	-2.6865222	1.6644467
C	2.9819728	1.6057404	-0.3679344
H	3.0270798	1.1659786	-1.3565589
H	3.7990127	2.2586279	-0.0877614
C	1.9682060	1.3745646	0.4966425
C	1.9604532	1.9787550	1.8861873
H	1.9499983	1.2185158	2.6759589
H	2.8505997	2.5951567	2.0288623
H	1.0774505	2.6139968	2.0341881
C	-0.9326669	-0.1558997	-1.1755118
C	0.5670706	0.1776871	-1.2203912
N	0.8342739	0.6263864	0.1507523
C	-0.0247344	-0.0658520	1.1231991
C	-1.1481478	-0.7181239	0.2507964
H	-1.5172198	0.7597162	-1.3176532
H	-1.2290350	-0.8718500	-1.9478962
H	0.8022696	0.9860019	-1.9199544
H	1.1720588	-0.7012218	-1.4940265
H	-0.4335259	0.6339263	1.8576557
H	-1.0337813	-1.8057082	0.2491746
H	-2.1391615	-0.4851170	0.6491552
C	7.2644251	-1.1987202	-1.5985572
H	7.8122955	-0.2465775	-1.7321433
O	7.8201940	-2.2739768	-1.8494683
C	5.8500845	-1.0668942	-1.1072930
H	5.2635388	-0.4544686	-1.8051081
H	5.3877760	-2.0509189	-1.0046135
H	5.8333295	-0.5483850	-0.1394703
