31
-0.00075862 (energy)
C	-3.1416472	0.6940998	-0.8937670
O	-3.8573340	1.3396670	-0.1221184
O	-3.3937943	-0.6291795	-1.1937644
H	-4.1724528	-0.9520732	-0.6900212
C	0.6161707	-0.8486250	0.2413359
H	0.8042669	-1.6600881	-0.4507268
H	1.0859189	-0.9197596	1.2142644
C	-0.1587480	0.2166696	-0.0641260
C	-0.4288243	1.3137254	0.9455613
H	-1.4951526	1.4202179	1.1766790
H	0.0944411	1.0970456	1.8793231
H	-0.0776135	2.2853351	0.5744068
C	-0.8008819	0.4478159	-3.6818214
C	-0.3441319	-0.4156670	-2.4951103
N	-0.7039100	0.4148908	-1.3403389
C	-1.9034637	1.2224633	-1.6079949
C	-2.0770103	1.1533331	-3.1616053
H	-0.0263504	1.1853707	-3.9192511
H	-0.9962477	-0.1419750	-4.5823631
H	0.7354400	-0.5961888	-2.4910620
H	-0.8562009	-1.3908163	-2.4797111
H	-1.7739291	2.2504024	-1.2575828
H	-2.9631258	0.5630514	-3.4111826
H	-2.2079999	2.1520327	-3.5864945
C	5.8916182	-0.0160011	1.2274889
H	6.0594012	0.9615103	1.7183078
O	6.7897656	-0.8652215	1.2145280
C	4.5348632	-0.2038061	0.6086003
H	4.3549700	0.5706189	-0.1489954
H	4.4575819	-1.1915786	0.1493511
H	3.7529290	-0.0889870	1.3709709
