31
-0.00541952 (energy)
C	4.0447259	-1.0214259	0.6217199
O	4.4774655	-2.1645384	0.4472593
O	3.7921336	-0.5173347	1.8813762
H	3.9739846	-1.1980842	2.5653622
C	0.0000000	-0.0000000	0.0000000
H	-0.1549589	0.8944040	0.5906205
H	-0.8672710	-0.6240722	-0.1751807
C	1.2028685	-0.3472249	-0.5110780
C	1.3870137	-1.6272181	-1.3007926
H	2.1102125	-2.3080258	-0.8367921
H	0.4347471	-2.1560293	-1.3796270
H	1.7452184	-1.4148729	-2.3165333
C	3.5930521	2.4508257	-0.4042161
C	2.2752343	1.8465540	0.1063900
N	2.3345470	0.4736612	-0.4078187
C	3.7187628	-0.0180358	-0.4779819
C	4.5942948	1.2716647	-0.3411646
H	3.4658212	2.7891691	-1.4384284
H	3.9258398	3.3041476	0.1941907
H	1.3915116	2.3490515	-0.2993324
H	2.2128834	1.8748777	1.2057890
H	3.9054710	-0.5393759	-1.4211527
H	5.1137250	1.2684792	0.6211785
H	5.3493431	1.3187353	-1.1303264
C	3.1251225	-4.5850897	4.4703248
H	2.2390083	-5.0039618	3.9565830
O	3.6349313	-3.5332123	4.0682539
C	3.6252802	-5.3775315	5.6454658
H	3.8891312	-6.3956698	5.3295165
H	4.4975586	-4.8933724	6.0896471
H	2.8332070	-5.4750763	6.3997327
