31
-0.00371556 (energy)
C	-0.3240216	0.0060926	-0.3695414
O	-0.8958816	0.1171534	0.7190576
O	1.0469796	-0.1173418	-0.4683569
H	1.4600357	-0.0695535	0.4212652
C	0.3356220	3.2856479	-2.9384014
H	1.1630735	2.9834941	-3.5683463
H	0.2126251	4.3485520	-2.7728121
C	-0.5218486	2.4051752	-2.3743353
C	-1.6451949	2.8653521	-1.4675436
H	-1.5669303	2.4499904	-0.4560291
H	-1.6324710	3.9540587	-1.3825496
H	-2.6222545	2.5651292	-1.8679819
C	-0.2456256	-0.9369183	-3.8934128
C	0.3845571	0.4478507	-3.6748009
N	-0.4765953	1.0292433	-2.6388653
C	-1.0044497	-0.0021303	-1.7331168
C	-0.7413214	-1.3486067	-2.4856907
H	-1.0901945	-0.8511494	-4.5859487
H	0.4615055	-1.6617349	-4.3076628
H	0.3514104	1.0764224	-4.5702779
H	1.4333088	0.3711553	-3.3467679
H	-2.0688752	0.1530801	-1.5352915
H	0.0319793	-1.9207263	-1.9654915
H	-1.6459246	-1.9614061	-2.5211845
C	5.0383123	-0.7243703	1.4963864
H	5.2179833	0.2756445	1.9348743
O	4.1226503	-0.8887196	0.6824057
C	5.9675366	-1.8102810	1.9615940
H	5.9020373	-1.9217276	3.0521610
H	5.7189243	-2.7584123	1.4801215
H	7.0072428	-1.5413775	1.7324317
