31
-0.00370991 (energy)
C	3.1416473	0.9579267	0.6024699
O	3.8573340	1.3006419	-0.3434397
O	3.3937944	-0.1829439	1.3369636
H	4.1724528	-0.6586550	0.9740359
C	-0.6161707	-0.8799884	0.0634654
H	-0.8042669	-1.4058148	0.9913284
H	-1.0859189	-1.2795942	-0.8264588
C	0.1587480	0.2255352	-0.0138466
C	0.4288242	0.9110969	-1.3378576
H	1.4951526	0.9321202	-1.5914598
H	-0.0944411	0.3881191	-2.1411978
H	0.0776135	1.9510537	-1.3213966
C	0.8008820	1.6800667	3.3066181
C	0.3441320	0.4627790	2.4868031
N	0.7039100	0.8482928	1.1176055
C	1.9034638	1.6987064	1.0929136
C	2.0770105	2.1651115	2.5764737
H	0.0263506	2.4543473	3.2774704
H	0.9962479	1.4338480	4.3545709
H	-0.7354399	0.2917594	2.5447411
H	0.8562010	-0.4588284	2.8058534
H	1.7739292	2.5448052	0.4120580
H	2.9631260	1.6957886	3.0128879
H	2.2080001	3.2489028	2.6341635
C	4.6653230	-4.4046817	0.0522697
H	5.0319290	-4.3428405	-0.9900155
O	4.1226407	-3.4260490	0.5774230
C	4.8793515	-5.7264248	0.7351059
H	5.9496593	-5.9714402	0.7564487
H	4.4889565	-5.6976759	1.7545871
H	4.3821254	-6.5272738	0.1718828
