31
-0.00334847 (energy)
C	1.3067953	-1.1197866	-1.5928484
O	2.3390086	-1.1700249	-2.2684356
O	0.2924283	-2.0448916	-1.7338625
H	0.5105899	-2.6865222	-2.4445258
C	-1.8096269	1.6057404	-2.3984970
H	-2.6883543	1.1659786	-1.9432487
H	-1.9755098	2.2586279	-3.2461609
C	-0.5539979	1.3745646	-1.9528377
C	0.6532596	1.9787550	-2.6408959
H	1.3424493	1.2185158	-3.0267275
H	0.3317466	2.5951567	-3.4831229
H	1.2229333	2.6139968	-1.9501935
C	-0.5516897	-0.1558997	1.3954691
C	-1.3404251	0.1776871	0.1190981
N	-0.2865816	0.6263864	-0.7978786
C	0.9850862	-0.0658520	-0.5401789
C	0.7912700	-0.7181239	0.8689270
H	-0.3825113	0.7597162	1.9727775
H	-1.0724102	-0.8718500	2.0383236
H	-2.0638641	0.9860019	0.2651912
H	-1.8798943	-0.7012218	-0.2680195
H	1.8255400	0.6339263	-0.5533833
H	0.7326821	-1.8057082	0.7706936
H	1.6317656	-0.4851170	1.5279906
C	3.7130933	4.3471155	0.2827368
H	4.5196909	4.3377632	1.0402958
O	3.2620291	3.2828844	-0.1554019
C	3.2413412	5.7095272	-0.1419540
H	4.0783823	6.2863780	-0.5574683
H	2.4482949	5.6241541	-0.8878533
H	2.8716074	6.2690842	0.7275322
