31
-0.00315102 (energy)
C	1.6064376	2.3441324	1.7535515
O	1.2340613	2.5950830	2.9036671
O	1.4821327	3.2578890	0.7267887
H	1.0424146	4.0753416	1.0473286
C	-0.6161705	-0.0903076	-0.8776402
H	-0.2817070	0.1928222	-1.8679811
H	-1.6220654	-0.4827516	-0.7971639
C	0.1598891	0.0243498	0.2238333
C	-0.3580793	-0.3471676	1.5984694
H	-0.3509242	0.4998947	2.2943476
H	-1.3860450	-0.7082218	1.5236747
H	0.2516677	-1.1421639	2.0471562
C	3.6971255	0.5589429	-0.6454500
C	2.2287677	0.5842721	-1.0990914
N	1.5023498	0.4238703	0.1655634
C	2.2303531	1.0339084	1.2883309
C	3.6749413	1.2640924	0.7326485
H	4.0307771	-0.4790529	-0.5382115
H	4.3657709	1.0597529	-1.3519195
H	1.9767516	-0.2424786	-1.7706948
H	1.9749832	1.5288686	-1.6057457
H	2.2298171	0.3771821	2.1629376
H	3.8609556	2.3349461	0.6118471
H	4.4272730	0.8678240	1.4197135
C	3.6269898	-2.4131313	3.1241117
H	2.5221506	-2.3548891	3.1469388
O	4.2541552	-1.9205891	2.1796130
C	4.2613588	-3.1134724	4.2929472
H	3.8872355	-4.1435118	4.3643437
H	5.3483223	-3.1241604	4.1881962
H	3.9856962	-2.6106018	5.2294004
