31
-0.0031318 (energy)
C	0.6831997	-2.1072172	-0.7692047
O	1.4220984	-2.7807004	-1.4936736
O	-0.3182232	-2.6780596	-0.0103003
H	-0.3562795	-3.6467960	-0.1665953
C	-2.5208273	0.1791612	-2.2845723
H	-3.1908569	0.3104496	-1.4439611
H	-2.9666244	0.2037625	-3.2709662
C	-1.1884975	-0.0047867	-2.1441472
C	-0.2893764	-0.2229640	-3.3441141
H	0.2262880	-1.1899079	-3.3137506
H	-0.8795584	-0.1888138	-4.2623662
H	0.4821760	0.5556188	-3.4044962
C	-0.0411402	0.8447560	1.2492777
C	-1.2188536	0.5027417	0.3227121
N	-0.5421892	0.0609068	-0.9018982
C	0.7409261	-0.5932936	-0.6046120
C	1.0407411	-0.1992208	0.8797802
H	0.3152866	1.8576728	1.0319792
H	-0.3105882	0.7990837	2.3086683
H	-1.8486972	1.3692358	0.0978448
H	-1.8581909	-0.2857691	0.7503411
H	1.5261782	-0.2499787	-1.2841272
H	0.9520887	-1.0788136	1.5235032
H	2.0559617	0.1925824	0.9842187
C	3.4131937	3.2464918	-0.8890560
H	3.2932682	2.8630919	-1.9201745
O	3.4073251	2.4638448	0.0677310
C	3.5758628	4.7358017	-0.7683377
H	2.7057424	5.2469968	-1.2014854
H	3.6874633	5.0245306	0.2789243
H	4.4541097	5.0671190	-1.3381837
