31
-0.00311425 (energy)
C	-0.1405257	-0.1206653	0.4552805
O	0.9984076	0.3560204	0.4580440
O	-0.8698812	-0.2704528	-0.7067217
H	-0.3665917	0.0787221	-1.4742523
C	-3.5322778	2.0825069	1.6518188
H	-4.3691539	1.5831214	1.1795308
H	-3.6508533	3.1379450	1.8623030
C	-2.3837124	1.4480552	1.9788161
C	-1.2203978	2.1906211	2.6043045
H	-0.3133326	2.1462669	1.9902379
H	-1.4800646	3.2427403	2.7395308
H	-0.9688182	1.7715459	3.5872663
C	-2.7681241	-2.2120405	1.8818016
C	-3.3154755	-0.8360136	1.4701427
N	-2.2140646	0.0646275	1.8286159
C	-0.9075505	-0.5947624	1.6838133
C	-1.2527339	-2.1174318	1.5792707
H	-2.9348282	-2.3683052	2.9532726
H	-3.2441160	-3.0348272	1.3400910
H	-4.2138210	-0.5516206	2.0270773
H	-3.5501819	-0.7958899	0.3946564
H	-0.2603209	-0.3812522	2.5392278
H	-1.0465866	-2.4771300	0.5673208
H	-0.6478070	-2.7054145	2.2745619
C	4.7264477	2.2505448	-2.0305143
H	4.5078536	3.2120397	-1.5281926
O	5.3044913	2.2395192	-3.1231058
C	4.2759632	1.0199591	-1.2944432
H	3.1910347	1.0555338	-1.1279759
H	4.5312973	0.1213077	-1.8599579
H	4.7474014	0.9789113	-0.3035474
