31
-0.005983 (energy)
C	-0.4361924	0.2269955	0.0318074
O	-0.3090004	-0.3361260	-1.0595940
O	0.5536174	0.1880497	0.9929429
H	1.3114208	-0.3527178	0.6790754
N	-2.2158748	0.5670817	1.7531234
C	-0.9582515	2.5409723	2.2558767
C	-1.7762684	1.3929310	2.8897294
C	-3.2762588	-1.0744616	3.1689476
H	-2.9718738	-0.5902968	4.0878895
H	-3.8789256	-1.9683207	3.2669081
C	-2.9485443	-0.6093402	1.9405237
C	-3.4067514	-1.3206589	0.6845040
H	-2.5705896	-1.6023350	0.0336007
H	-3.9473826	-2.2311846	0.9504245
H	-4.0817242	-0.6896535	0.0910265
C	-1.6620864	1.0203366	0.4764871
C	-1.3320718	2.5091704	0.7557140
H	-1.1880502	3.5088755	2.7112709
H	0.1110408	2.3520514	2.3790547
H	-2.6568303	1.7543305	3.4398539
H	-1.1674910	0.8053398	3.5904431
H	-2.3854866	0.9160697	-0.3353801
H	-0.5374343	2.8942596	0.1098543
H	-2.2360304	3.0987529	0.5669369
C	4.8305142	0.1344170	-0.8142182
H	4.6204214	1.1589683	-1.1757962
O	3.9636241	-0.4950824	-0.1975789
C	6.2023835	-0.3930611	-1.1285739
H	6.9680492	0.2636560	-0.6943785
H	6.3218233	-1.4053224	-0.7366072
H	6.3661332	-0.3959657	-2.2143874
