31
-0.00283087 (energy)
C	-1.7737574	0.5099152	-0.8783228
O	-2.9345545	0.7349932	-0.5228925
O	-1.3040915	0.8886634	-2.1196871
H	-2.0204584	1.3163944	-2.6384095
N	-0.1047172	-1.3430727	-0.7152364
C	1.4771849	0.4439569	-0.9016018
C	1.1923885	-1.0139195	-1.3286930
C	-0.1859386	-3.5368154	-1.7175003
H	0.7372467	-3.4037661	-2.2666332
H	-0.6785552	-4.4952924	-1.8196674
C	-0.7228092	-2.5800622	-0.9243085
C	-2.0142813	-2.8197487	-0.1705420
H	-2.7808393	-2.0713095	-0.4038024
H	-2.4154068	-3.8026562	-0.4255793
H	-1.8544434	-2.7929597	0.9156006
C	-0.7163562	-0.1996609	-0.0366872
C	0.5020311	0.7089937	0.2688988
H	2.5196407	0.5878870	-0.6022727
H	1.2631789	1.1256581	-1.7284845
H	1.9557032	-1.7176419	-0.9670837
H	1.1459817	-1.1103333	-2.4220475
H	-1.2294184	-0.5026788	0.8788756
H	0.2287688	1.7638851	0.3658990
H	0.9379279	0.3843013	1.2201896
C	4.0897200	-3.2976194	1.7649913
H	4.6639901	-3.0205161	2.6694307
O	3.9374698	-2.4779796	0.8522906
C	3.5395426	-4.6962696	1.7523170
H	2.8750617	-4.8484362	2.6133381
H	2.9900620	-4.8825540	0.8271436
H	4.3560208	-5.4240773	1.8496442
