31
-0.00277019 (energy)
C	-1.4974427	1.9974830	-2.0634391
O	-2.2505537	2.9306672	-2.3574319
O	-1.5855113	0.7662092	-2.6808777
H	-2.3214974	0.7639085	-3.3316675
N	-0.4975237	0.9918045	-0.0056176
C	1.2158178	0.2889277	-1.5225376
C	0.3941414	-0.1451379	-0.2874852
C	-1.6099592	-0.1437898	1.8100228
H	-1.0546341	-1.0631684	1.6763179
H	-2.3237838	-0.1209163	2.6234837
C	-1.4401409	0.9471231	1.0265492
C	-2.2377750	2.2129801	1.2608557
H	-2.7982084	2.5258413	0.3719152
H	-2.9526355	2.0560621	2.0710433
H	-1.5858162	3.0498674	1.5446533
C	-0.3958353	2.0530356	-1.0082989
C	1.0125419	1.8192185	-1.6127049
H	2.2730948	0.0246629	-1.4258044
H	0.8250683	-0.1939872	-2.4216249
H	1.0238099	-0.3413704	0.5920864
H	-0.1837428	-1.0572482	-0.4899151
H	-0.4776076	3.0436357	-0.5551625
H	1.1032861	2.2021530	-2.6334908
H	1.7421189	2.3465566	-0.9881912
C	4.6452925	-1.1010672	1.0085354
H	4.7454470	-1.7886124	0.1472378
O	3.7883750	-0.2102842	0.9940369
C	5.6029222	-1.3413239	2.1418050
H	6.6383151	-1.2597518	1.7849374
H	5.4335419	-0.6207502	2.9447126
H	5.4808214	-2.3614257	2.5294869
