31
-0.00561313 (energy)
C	3.1403290	0.5498579	-0.5710029
O	4.3440753	0.4997194	-0.3009626
O	2.5282666	1.7235920	-0.9618348
H	3.1763344	2.4619783	-0.9604566
N	0.9950477	-0.3761564	0.3156326
C	0.2680651	-0.1024888	-1.9487047
C	-0.1814394	0.0211049	-0.4750732
C	-0.0866257	0.0813839	2.4237779
H	-0.9959263	0.4475045	1.9648136
H	-0.0647973	0.0546808	3.5057196
C	0.9859039	-0.3407668	1.7136869
C	2.2326559	-0.8517213	2.4050974
H	3.1324411	-0.2997721	2.1085813
H	2.1215761	-0.7572957	3.4871315
H	2.4114541	-1.9107989	2.1762800
C	2.1743006	-0.6305515	-0.5129611
C	1.5564647	-0.9560716	-1.8970922
H	-0.5006587	-0.5648995	-2.5750176
H	0.4905699	0.8863958	-2.3571762
H	-1.0243136	-0.6418088	-0.2327011
H	-0.4889253	1.0477918	-0.2337444
H	2.7619230	-1.4679714	-0.1299001
H	2.2403068	-0.7466764	-2.7249755
H	1.3167574	-2.0249182	-1.9192927
C	2.6247228	5.6887956	0.9618109
H	2.2989967	5.2353757	1.9172667
O	3.2819128	5.0243097	0.1527547
C	2.2125089	7.1188191	0.7515952
H	2.6108084	7.7490163	1.5579795
H	2.5745918	7.4833362	-0.2120437
H	1.1186489	7.2062956	0.7919868
