31
-0.00273286 (energy)
C	-3.1403290	-0.7882492	-0.0839719
O	-4.3440753	-0.5762623	0.0906625
O	-2.5282666	-1.9386036	0.3710953
H	-3.1763345	-2.5033544	0.8467767
N	-0.9950477	0.4910372	-0.0000002
C	-0.2680650	-1.1740924	-1.5586729
C	0.1814394	-0.3215384	-0.3503612
C	0.0866256	1.4956308	1.9090340
H	0.9959262	0.9201496	1.7927849
H	0.0647971	2.2115454	2.7206851
C	-0.9859040	1.3625792	1.0937196
C	-2.2326560	2.1984232	1.2949354
H	-3.1324411	1.5850087	1.4225769
H	-2.1215763	2.8216072	2.1845172
H	-2.4114541	2.8626427	0.4388891
C	-2.1743006	0.1533054	-0.7982618
C	-1.5564646	-0.4870341	-2.0678080
H	0.5006589	-1.2224514	-2.3356883
H	-0.4905698	-2.1941823	-1.2359375
H	1.0243137	0.3420767	-0.5908061
H	0.4889252	-0.9529031	0.4944491
H	-2.7619230	1.0410331	-1.0431033
H	-2.2403067	-1.1795933	-2.5674067
H	-1.3167573	0.3174797	-2.7718559
C	3.9316230	2.4593671	0.0321973
H	4.8177371	2.4500148	-0.6305977
O	3.4218142	1.3951361	0.4003269
C	3.4314653	3.8217788	0.4230357
H	3.1676142	4.3986297	-0.4734422
H	2.5591869	3.7364057	1.0745098
H	4.2235385	4.3813359	0.9381369
