31
-0.00269079 (energy)
C	-0.4626163	0.3220137	-3.1894118
O	-0.8436260	0.9162952	-4.2023786
O	-0.8044865	-0.9921502	-2.9421875
H	-1.3854770	-1.3328087	-3.6574566
N	-0.1727881	0.7965801	-0.7528891
C	1.4884441	-0.9204238	-0.9039729
C	0.3765450	-0.3424521	0.0007639
C	-1.8649891	1.2628758	0.9032090
H	-1.5926076	0.4227303	1.5288956
H	-2.6680998	1.8947629	1.2603077
C	-1.2483040	1.5475246	-0.2678736
C	-1.6629591	2.7409466	-1.1029296
H	-1.9449076	2.4600141	-2.1245777
H	-2.5197373	3.2363004	-0.6418347
H	-0.8509661	3.4761739	-1.1809020
C	0.4085710	0.9238264	-2.0899574
C	1.7661161	0.1894020	-1.9443701
H	2.3871425	-1.1786432	-0.3359131
H	1.1319742	-1.8232174	-1.4061112
H	0.7597006	0.0115221	0.9685086
H	-0.4020363	-1.0894837	0.2072297
H	0.5476532	1.9704844	-2.3700844
H	2.1393768	-0.2013846	-2.8956006
H	2.5010927	0.9064727	-1.5622647
C	5.0648379	1.6108289	1.0206251
H	5.9051823	0.9155938	0.8334026
O	3.9003269	1.2391969	0.8367344
C	5.4546244	2.9822865	1.4962813
H	6.1120120	3.4644377	0.7604697
H	4.5670852	3.5984609	1.6549635
H	6.0254705	2.9094828	2.4315073
