31
-0.00269068 (energy)
C	-1.7848066	0.7221652	-0.6860193
O	-2.7329929	1.3772831	-0.2430700
O	-1.5854393	0.5513367	-2.0410440
H	-2.3004756	0.9944393	-2.5485787
N	-0.5810653	-1.4019792	-0.1522835
C	1.2494801	-0.3075546	-1.2394631
C	0.5494512	-1.6731977	-1.0553488
C	-1.4022705	-3.6684137	-0.2642383
H	-0.6493840	-3.9871451	-0.9735282
H	-2.1026645	-4.4218536	0.0727545
C	-1.4886069	-2.4029062	0.2088335
C	-2.5573991	-2.0099136	1.2072090
H	-3.1743013	-1.1751311	0.8540053
H	-3.2172428	-2.8587585	1.3972653
H	-2.1167389	-1.7049557	2.1657448
C	-0.7266615	0.0201864	0.1610348
C	0.6980767	0.5749441	-0.0956136
H	2.3391356	-0.3955091	-1.1953870
H	0.9816042	0.1238095	-2.2071498
H	1.2067641	-2.4277379	-0.6001075
H	0.1981851	-2.0770202	-2.0147302
H	-1.0355198	0.1740939	1.1974840
H	0.6986224	1.6410386	-0.3412137
H	1.2855441	0.4389223	0.8191354
C	4.6477206	1.8631610	-0.3536587
H	4.2580963	1.9861740	-1.3820767
O	4.1525409	1.0173539	0.3996138
C	5.7803382	2.7771059	0.0217878
H	5.4692855	3.8253908	-0.0801529
H	6.1004157	2.5873636	1.0484937
H	6.6268747	2.6298472	-0.6619550
