31
-0.00261156 (energy)
C	2.6631199	-1.4093564	1.3915271
O	2.4875501	-2.6305981	1.3447884
O	2.8807092	-0.7483529	2.5834796
H	2.8469415	-1.3810090	3.3343552
N	1.7284277	0.6464627	0.3210996
C	3.8920092	1.5450836	0.8130515
C	2.3850563	1.8857210	0.7685723
C	-0.4891187	1.5762706	0.5250170
H	-0.1388394	2.5238352	0.9135343
H	-1.5575547	1.4733866	0.3848493
C	0.3376388	0.5520462	0.2084783
C	-0.2032711	-0.7519644	-0.3396880
H	0.0965010	-1.6168300	0.2639073
H	-1.2943701	-0.7201079	-0.3629448
H	0.1500511	-0.9326928	-1.3636373
C	2.6624110	-0.4722486	0.1866310
C	4.0252660	0.2409154	-0.0070880
H	4.5071874	2.3496947	0.3993067
H	4.2071064	1.3718919	1.8450246
H	2.1549742	2.6958345	0.0618798
H	2.0135166	2.1932284	1.7556238
H	2.4147142	-1.1021099	-0.6708240
H	4.8730935	-0.3753564	0.3064003
H	4.1445613	0.4618801	-1.0735442
C	5.1149924	4.1540647	-2.1051912
H	4.2774694	4.5231537	-1.4831692
O	5.3169960	2.9395114	-2.2150416
C	5.9427989	5.2173459	-2.7709596
H	6.3750702	5.8873661	-2.0158030
H	6.7424937	4.7653580	-3.3615288
H	5.3100663	5.8374397	-3.4197634
