31
-0.0026036 (energy)
C	-0.5880419	0.3131939	-1.9323033
O	-1.5295321	-0.0119954	-2.6618845
O	0.2594915	1.3537737	-2.2546422
H	0.0073305	1.7418721	-3.1212463
N	1.1697880	-0.8071355	-0.5536255
C	1.0895900	1.2323984	0.6971706
C	2.0420867	0.1403642	0.1594616
C	3.0152848	-2.1774015	-1.2885742
H	3.7671153	-1.5338039	-0.8503356
H	3.3703114	-3.0703014	-1.7870454
C	1.6880388	-1.9177338	-1.2273314
C	0.6756700	-2.8556977	-1.8509071
H	0.0305052	-2.3513816	-2.5800234
H	1.1914580	-3.6694589	-2.3645298
H	0.0201142	-3.2998941	-1.0900472
C	-0.2226940	-0.3605020	-0.6122273
C	-0.3220514	0.6098071	0.5928170
H	1.3321172	1.5190116	1.7248190
H	1.1516696	2.1257982	0.0708856
H	2.5755889	-0.3885197	0.9621403
H	2.7979006	0.5637975	-0.5160550
H	-0.9179411	-1.1969860	-0.5110641
H	-1.1102607	1.3583007	0.4688794
H	-0.5544560	0.0195182	1.4860877
C	2.4579825	-0.2993792	4.7336537
H	2.6846758	-1.3707027	4.5740954
O	2.8015898	0.5387371	3.8925193
C	1.7285840	0.0239521	6.0074327
H	2.3139452	-0.3125330	6.8735603
H	1.5471853	1.0982511	6.0819497
H	0.7725553	-0.5151239	6.0423534
