31
-0.00256394 (energy)
C	-0.3112167	0.1793705	0.3373024
O	0.8073549	0.6894040	0.4517760
O	-0.5869460	-0.7656414	-0.6301413
H	0.2075547	-0.9257915	-1.1854150
N	-2.7025936	0.8979388	0.4413821
C	-3.0675845	-1.3836291	1.0673622
C	-3.6523729	-0.2102082	0.2488113
C	-3.8987578	2.3736340	-1.0469564
H	-4.6378069	1.6293899	-1.3142150
H	-4.0150517	3.3548824	-1.4890139
C	-2.8729801	2.1301998	-0.1976743
C	-1.8692463	3.2096920	0.1497858
H	-0.8380300	2.9101718	-0.0717169
H	-2.0862713	4.1150929	-0.4204792
H	-1.9106648	3.4659894	1.2168227
C	-1.5210290	0.5036547	1.2097356
C	-2.0242459	-0.7297406	2.0028385
H	-3.8397737	-1.9168136	1.6299152
H	-2.5772222	-2.0979118	0.4013330
H	-4.6473897	0.0971200	0.6011275
H	-3.7441800	-0.4689825	-0.8148994
H	-1.1911498	1.3021465	1.8782403
H	-1.2153908	-1.4113319	2.2822379
H	-2.4972320	-0.3715710	2.9239162
C	4.5170288	2.2663596	-2.0956865
H	4.0432904	2.0215549	-3.0653388
O	5.1388575	3.3260135	-1.9597637
C	4.3412709	1.2387360	-1.0130153
H	4.7541912	0.2741825	-1.3373303
H	4.8384151	1.5610597	-0.0956648
H	3.2731988	1.0761994	-0.8165028
