31
-0.00378483 (energy)
C	-0.6478343	1.8160320	0.6782464
O	-0.4387862	2.5544481	1.6454492
O	-1.2630150	2.2732655	-0.4695828
H	-1.5079750	3.2195005	-0.3703761
N	-1.4079578	-0.5271919	0.2570924
C	-0.1426293	-0.2758529	-1.7594377
C	-1.4371522	-0.8819030	-1.1713619
C	-3.5668641	-1.5126927	0.6947549
H	-3.7366010	-1.7860256	-0.3386853
H	-4.3362189	-1.7905092	1.4037674
C	-2.4560555	-0.8655004	1.1190265
C	-2.2633978	-0.5125272	2.5790972
H	-2.0987036	0.5605351	2.7327075
H	-3.1476566	-0.8021460	3.1502891
H	-1.3992912	-1.0380159	3.0070609
C	-0.2784608	0.3369065	0.6027688
C	0.7388445	0.0397114	-0.5287207
H	0.3553180	-0.9627591	-2.4502606
H	-0.3720647	0.6450241	-2.3012817
H	-1.4772757	-1.9756880	-1.2746110
H	-2.3310765	-0.4711371	-1.6602832
H	0.1313364	0.0895859	1.5847091
H	1.4323403	0.8679444	-0.7018414
H	1.3266597	-0.8371333	-0.2354593
C	3.4316222	1.8942896	1.6277852
H	3.4576210	2.5923618	0.7695299
O	3.2235384	0.6901789	1.4411556
C	3.6619771	2.5184812	2.9755239
H	2.9060109	3.2915271	3.1677787
H	3.6194582	1.7602519	3.7602897
H	4.6393504	3.0185325	2.9979588
