31
-0.00254694 (energy)
C	1.6428862	2.7738177	-0.3113104
O	2.0935215	3.8496346	0.0936423
O	0.9427553	2.6756428	-1.4967217
H	0.8548370	3.5606548	-1.9141332
N	0.4975240	0.7633771	0.6332162
C	1.4838828	-0.3349934	-1.2512730
C	0.2127020	-0.2714286	-0.3743589
C	-1.6965848	0.6064219	1.6256318
H	-2.0505603	-0.1264022	0.9120563
H	-2.3885810	0.9003816	2.4044236
C	-0.4542370	1.1427889	1.5851037
C	-0.0051190	2.1600411	2.6132109
H	0.3342327	3.0968091	2.1555109
H	-0.8310594	2.3951235	3.2874598
H	0.8256378	1.7756714	3.2199023
C	1.7784652	1.4347042	0.4086474
C	2.5690065	0.3938356	-0.4251035
H	1.7724360	-1.3648217	-1.4819645
H	1.3156381	0.1908269	-2.1943831
H	-0.0005037	-1.2239211	0.1315435
H	-0.6726681	-0.0080505	-0.9690226
H	2.2843153	1.6611557	1.3499992
H	3.3435928	0.8513203	-1.0476797
H	3.0588763	-0.2969814	0.2700115
C	6.8410273	0.0555763	0.7059384
H	7.0338106	0.2490759	-0.3664307
O	5.7382033	-0.3669928	1.0709408
C	7.9907548	0.3412766	1.6309141
H	8.2927438	1.3935619	1.5440515
H	7.7133035	0.1231100	2.6643554
H	8.8626519	-0.2630452	1.3473583
