31
-0.00252589 (energy)
C	-0.6478343	-1.8160320	-0.6782463
O	-0.4387862	-2.5544482	-1.6454491
O	-1.2630150	-2.2732654	0.4695829
H	-1.5079750	-3.2195005	0.3703763
N	-1.4079578	0.5271918	-0.2570924
C	-0.1426293	0.2758530	1.7594377
C	-1.4371522	0.8819031	1.1713619
C	-3.5668641	1.5126927	-0.6947550
H	-3.7366010	1.7860256	0.3386852
H	-4.3362189	1.7905091	-1.4037675
C	-2.4560555	0.8655003	-1.1190266
C	-2.2633978	0.5125271	-2.5790972
H	-2.0987036	-0.5605352	-2.7327075
H	-3.1476566	0.8021459	-3.1502892
H	-1.3992912	1.0380157	-3.0070610
C	-0.2784608	-0.3369065	-0.6027688
C	0.7388445	-0.0397114	0.5287207
H	0.3553180	0.9627592	2.4502606
H	-0.3720647	-0.6450240	2.3012817
H	-1.4772757	1.9756881	1.2746109
H	-2.3310765	0.4711372	1.6602832
H	0.1313364	-0.0895860	-1.5847091
H	1.4323403	-0.8679444	0.7018415
H	1.3266597	0.8371333	0.2354593
C	3.9340514	2.6358077	-1.8524337
H	4.5400371	2.0334912	-2.5556968
O	3.5808955	2.1549978	-0.7697911
C	3.5977315	4.0255087	-2.3157890
H	3.0431791	3.9839156	-3.2627782
H	3.0008752	4.5453816	-1.5634117
H	4.5182119	4.5911528	-2.5121969
