31
-0.00554062 (energy)
C	2.4879944	0.1029719	-0.2124554
O	3.3391290	0.0058268	-1.1015974
O	2.6662146	-0.4633831	1.0335386
H	3.5222995	-0.9440508	1.0693915
N	0.0000000	0.0000000	0.0000000
C	0.3867849	1.3972245	1.9049363
C	-0.4770744	0.2309801	1.3733908
C	-1.4651941	-1.8859298	-0.3465722
H	-1.8647215	-1.8576267	0.6589609
H	-1.8670660	-2.6425438	-1.0082532
C	-0.5181729	-1.0281459	-0.7939174
C	0.0021994	-1.1052967	-2.2140491
H	1.0907643	-1.2297964	-2.2553899
H	-0.4530207	-1.9529428	-2.7301146
H	-0.2421878	-0.1962325	-2.7796009
C	1.1534488	0.8317503	-0.3459323
C	1.0280986	2.0192757	0.6427912
H	-0.2077541	2.1283724	2.4607904
H	1.1648954	1.0147660	2.5701579
H	-1.5489457	0.4743325	1.3508653
H	-0.3562146	-0.6711642	1.9885344
H	1.1093367	1.1687979	-1.3840849
H	1.9880723	2.5029086	0.8463273
H	0.3623870	2.7654024	0.1950095
C	5.3758186	-3.2011423	3.1540794
H	5.2175723	-3.9107410	2.3198068
O	5.3152295	-1.9832056	2.9516658
C	5.6575416	-3.8279545	4.4907980
H	6.5551401	-4.4578467	4.4307998
H	5.7997728	-3.0577680	5.2518235
H	4.8277601	-4.4856641	4.7818205
