31
-0.00250561 (energy)
C	-1.1369722	-1.6939169	-0.1249782
O	-2.2942064	-2.0354628	0.1369303
O	-0.3224243	-2.4458594	-0.9472408
H	-0.7925004	-3.2564022	-1.2426338
N	0.8268924	-0.7099575	1.0670437
C	1.3921092	0.0936108	-1.1159426
C	1.9866033	-0.4825305	0.1892614
C	2.1645935	-1.6818825	2.8247566
H	3.0872169	-1.6177564	2.2624630
H	2.2335544	-2.0824747	3.8280301
C	0.9674486	-1.2811771	2.3358400
C	-0.2940012	-1.3851832	3.1673691
H	-1.0755975	-1.9729246	2.6715362
H	-0.0695861	-1.8627265	4.1232159
H	-0.7174476	-0.3939811	3.3775666
C	-0.4482007	-0.4378777	0.4021889
C	-0.0407678	0.5333227	-0.7354717
H	1.9838174	0.9284863	-1.5031016
H	1.3536688	-0.6819065	-1.8849324
H	2.6840396	0.2118246	0.6792506
H	2.5292614	-1.4195944	0.0040411
H	-1.1668561	0.0229106	1.0837434
H	-0.7337179	0.5074719	-1.5816567
H	-0.0411156	1.5510674	-0.3297857
C	6.0354598	0.9590808	1.0645927
H	5.4749408	1.4887183	1.8582460
O	5.4273913	0.3818793	0.1562406
C	7.5325275	1.0058585	1.1898053
H	7.8450333	0.5704573	2.1483525
H	8.0020740	0.4604717	0.3684308
H	7.8792868	2.0477622	1.1869849
