31
-0.00242364 (energy)
C	-1.1857156	-1.5087369	0.7038972
O	-1.4050225	-2.6943211	0.4379358
O	-1.5635831	-0.9487465	1.9074954
H	-2.0277890	-1.6142281	2.4614407
N	-1.2745052	0.7044015	-0.4536827
C	0.3875950	1.2997225	1.1629920
C	-0.8496981	1.8256213	0.4004596
C	-3.2012234	1.8874764	-1.2973222
H	-3.0298686	2.7608631	-0.6814057
H	-4.0488666	1.9253405	-1.9695237
C	-2.4108480	0.7888445	-1.2645380
C	-2.6899513	-0.4050529	-2.1534833
H	-2.8113446	-1.3333242	-1.5827302
H	-3.6068649	-0.2375767	-2.7220552
H	-1.8745576	-0.5692373	-2.8705245
C	-0.4936622	-0.5114599	-0.2215468
C	0.8240825	0.0380349	0.3826945
H	1.1875237	2.0446017	1.2109188
H	0.1115093	1.0303633	2.1854754
H	-0.6198856	2.6969373	-0.2293265
H	-1.6519188	2.1197616	1.0909643
H	-0.3114773	-1.0559771	-1.1508571
H	1.3390295	-0.6949925	1.0106895
H	1.4923839	0.3031096	-0.4440425
C	4.8013888	1.5282621	-2.0189318
H	5.4053717	1.9823161	-1.2104625
O	3.9386940	0.6850651	-1.7491384
C	5.1141853	2.0103751	-3.4077455
H	6.1682195	1.8154609	-3.6466328
H	4.4739069	1.5120169	-4.1386760
H	4.9705753	3.0971740	-3.4714458
