31
-0.00240022 (energy)
C	-0.0301486	0.4765788	0.1215163
O	1.1474386	0.1178326	0.0264885
O	-1.0783601	-0.3946489	-0.0958234
H	-0.7373496	-1.2812674	-0.3464778
N	-1.4285934	2.4523615	-0.5001680
C	-2.7770878	1.7211343	1.3376270
C	-2.8349303	2.3242174	-0.0842958
C	-2.0017752	3.2603298	-2.7006878
H	-3.0681136	3.1655395	-2.5411343
H	-1.6867041	3.6566107	-3.6574945
C	-1.0785426	2.9211517	-1.7704405
C	0.4029550	3.0806257	-2.0410813
H	0.9549889	2.1412994	-1.9181685
H	0.5574344	3.4300626	-3.0638632
H	0.8568388	3.8149946	-1.3623595
C	-0.4960047	1.8864119	0.4754861
C	-1.3131875	1.9246580	1.7923965
H	-3.4846262	2.2046878	2.0177691
H	-3.0131263	0.6546866	1.3026251
H	-3.3128447	3.3140675	-0.1050461
H	-3.3911806	1.6745349	-0.7737676
H	0.4160475	2.4826399	0.5528234
H	-0.9831930	1.1739132	2.5165257
H	-1.1801049	2.9129244	2.2462731
C	4.1839575	1.7804476	-2.4018943
H	4.2217130	1.4049997	-3.4421809
O	3.6450461	2.8648517	-2.1535914
C	4.8188710	0.8905370	-1.3703798
H	5.8770116	0.7257075	-1.6137247
H	4.7358328	1.3368763	-0.3771715
H	4.3356841	-0.0955330	-1.3735065
