31
-0.00239395 (energy)
C	1.1456119	3.1103167	-0.1683579
O	1.0411606	3.5921960	0.9635975
O	0.5461226	3.6916983	-1.2672799
H	0.0376016	4.4873703	-0.9961329
N	1.1176536	0.8519551	-1.2383475
C	2.4588326	1.9334140	-2.9003663
C	1.3330304	0.8947111	-2.6940050
C	-0.7121611	-0.7121097	-1.4089837
H	-0.6935656	-0.7331542	-2.4909872
H	-1.4405325	-1.3484235	-0.9228075
C	0.1246390	0.0502378	-0.6664529
C	0.0626325	0.0374735	0.8466584
H	-0.0957123	1.0372141	1.2681186
H	-0.7582486	-0.6012662	1.1786502
H	0.9914749	-0.3547805	1.2818135
C	1.9195611	1.8420233	-0.5181870
C	3.0880887	2.1155863	-1.4996196
H	3.1960365	1.5990758	-3.6364208
H	2.0368716	2.8800404	-3.2469168
H	1.6110305	-0.1072552	-3.0509578
H	0.4139500	1.1889560	-3.2189663
H	2.2809758	1.4502209	0.4353213
H	3.5360559	3.1036551	-1.3584722
H	3.8649791	1.3640103	-1.3208450
C	2.0041078	-3.3053760	-0.8578565
H	2.6173009	-3.1413606	-1.7643200
O	2.1894758	-2.6131402	0.1493478
C	0.9751907	-4.3960023	-0.9624610
H	1.4611378	-5.3521694	-1.1983565
H	0.4189884	-4.4878165	-0.0271611
H	0.2805246	-4.1820466	-1.7855499
