31
-0.00227339 (energy)
C	2.0568802	0.9307929	1.0717859
O	3.2245922	0.5845212	1.2742346
O	1.3162850	1.5951071	2.0284609
H	1.8447552	1.7097471	2.8486957
N	0.0000000	0.0000000	0.0000000
C	-0.5471559	2.3108158	-0.3022779
C	-1.1442394	0.9255660	0.0346103
C	-1.3276809	-1.8965139	0.6812749
H	-2.2348793	-1.3172609	0.7951925
H	-1.4022010	-2.9593080	0.8728550
C	-0.1434333	-1.3564121	0.3089744
C	1.0960255	-2.2131353	0.1563946
H	1.9275147	-1.8619800	0.7788885
H	0.8726702	-3.2426407	0.4432463
H	1.4502747	-2.2226826	-0.8830225
C	1.2754012	0.6845320	-0.2160775
C	0.8432389	2.0041212	-0.9055870
H	-1.1776076	2.8711802	-0.9990922
H	-0.4369797	2.9035049	0.6092213
H	-1.8982345	0.6005630	-0.6964850
H	-1.6215493	0.9238303	1.0240776
H	1.9427759	0.0998050	-0.8532692
H	1.5620059	2.8149558	-0.7545953
H	0.7677778	1.8159928	-1.9822944
C	5.6446546	-1.9598662	4.7154307
H	6.1117925	-1.0775276	5.1927603
O	5.5715507	-3.0304021	5.3291252
C	5.1327478	-1.7436779	3.3189021
H	5.9514949	-1.4197603	2.6625657
H	4.6900161	-2.6620639	2.9275807
H	4.3839278	-0.9405434	3.3113458
