31
-0.00225876 (energy)
C	-2.6631199	-1.6151188	1.1463090
O	-2.4875500	-1.7811566	2.3571135
O	-2.8807091	-2.6741810	0.2883674
H	-2.8469414	-3.5235086	0.7810239
N	-1.7284277	-0.2039645	-0.6923999
C	-3.8920092	-0.5323989	-1.6627952
C	-2.3850562	-0.4294442	-1.9905339
C	0.4891187	-0.2433244	-1.6434917
H	0.1388394	-0.4613965	-2.6441260
H	1.5575547	-0.1231517	-1.5178309
C	-0.3376388	-0.1094493	-0.5798613
C	0.2032711	0.2039502	0.7995266
H	-0.0965010	-0.5406574	1.5464397
H	1.2943701	0.2323856	0.7721925
H	-0.1500512	1.1809603	1.1553161
C	-2.6624110	-0.2658009	0.4326660
C	-4.0252660	0.0488146	-0.2360245
H	-4.5071873	0.0147794	-2.3833365
H	-4.2071063	-1.5787684	-1.6714349
H	-2.1549742	0.4071867	-2.6656241
H	-2.0135165	-1.3481022	-2.4647691
H	-2.4147143	0.4692533	1.2018536
H	-4.8730934	-0.3669255	0.3164480
H	-4.1445614	1.1374390	-0.2684442
C	3.3766720	-2.3522750	0.0736077
H	3.2840433	-2.3296127	-1.0288845
O	3.6225784	-1.3131682	0.6963430
C	3.1845744	-3.7000394	0.7105596
H	3.9179783	-4.4138620	0.3122846
H	3.2926453	-3.6292877	1.7949450
H	2.1905767	-4.0960897	0.4637277
