31
-0.00221325 (energy)
C	-0.9079406	-2.9207644	1.2882623
O	-0.8923995	-3.7399334	0.3645949
O	-2.0440008	-2.6851897	2.0358541
H	-2.7893326	-3.2322686	1.7035992
N	-0.0160830	-0.6347547	1.7621888
C	-0.1248591	-1.3708775	4.0374716
C	-0.3427352	-0.1510347	3.1136573
C	-0.6019754	1.4585145	0.7140518
H	-0.9237648	1.9192907	1.6390690
H	-0.6494691	2.0716899	-0.1767612
C	-0.1466807	0.1858890	0.6372976
C	0.2992297	-0.4094474	-0.6818885
H	-0.2431407	-1.3291079	-0.9313718
H	0.1326658	0.3082419	-1.4876374
H	1.3689767	-0.6572621	-0.6677179
C	0.2785272	-2.0679603	1.7298107
C	0.7059605	-2.3627397	3.1906014
H	0.3894246	-1.0977493	4.9637228
H	-1.0864381	-1.8182012	4.3011329
H	0.3132677	0.6940756	3.3668069
H	-1.3793084	0.2095489	3.1623271
H	1.0799434	-2.2979562	1.0240191
H	0.5444586	-3.4065161	3.4757771
H	1.7769302	-2.1499509	3.2807696
C	4.2000128	-1.8029354	-2.6863007
H	4.6988664	-1.1608607	-3.4369459
O	3.9260032	-1.3514977	-1.5686537
C	3.9019636	-3.2068392	-3.1327298
H	4.8306392	-3.7156923	-3.4237228
H	3.4118562	-3.7663280	-2.3331401
H	3.2571459	-3.1915798	-4.0214315
