31
-0.00202494 (energy)
C	-2.4182772	-0.5337609	-0.3359929
O	-3.4924831	-0.3306555	0.2378283
O	-2.1190437	-1.7500444	-0.9157646
H	-2.8557500	-2.3845280	-0.7746883
N	0.0000000	0.0000000	0.0000000
C	0.0853317	-0.2001667	-2.3839616
C	0.8626831	-0.5012718	-1.0824317
C	1.4860577	-0.7712666	1.7379348
H	2.1813520	-1.2287461	1.0459822
H	1.7395406	-0.8254710	2.7889323
C	0.3520332	-0.1444014	1.3457759
C	-0.5843534	0.4868884	2.3548184
H	-1.6059928	0.0958535	2.2804712
H	-0.2232909	0.2939237	3.3669703
H	-0.6428097	1.5751940	2.2201133
C	-1.2923641	0.4860340	-0.4852708
C	-0.9957179	0.8246323	-1.9687989
H	0.7371357	0.1929501	-3.1698615
H	-0.3873157	-1.1117383	-2.7579825
H	1.8342063	0.0116599	-1.0414474
H	1.0523463	-1.5772546	-0.9677059
H	-1.6239953	1.3676340	0.0680015
H	-1.8889571	0.7812937	-2.5989756
H	-0.6013481	1.8459054	-2.0119188
C	0.8430516	3.9469547	2.7461867
H	0.6752687	3.5136299	3.7505081
O	-0.0550958	4.5891642	2.1903898
C	2.1998066	3.6930076	2.1513717
H	2.3796997	2.6127905	2.0688106
H	2.2770878	4.1544855	1.1646384
H	2.9817408	4.0950935	2.8091856
