31
-0.00194183 (energy)
C	1.4974429	1.6852314	-2.3254492
O	2.2505539	1.8127119	-3.2955076
O	1.5855114	2.5070982	-1.2200983
H	2.3214975	3.1484005	-1.3308412
N	0.4975238	-0.1666928	-0.9777122
C	-1.2158178	1.4492350	-0.5489243
C	-0.3941414	0.3083206	0.0930116
C	1.6099591	-1.7575556	0.4559127
H	1.0546340	-1.4662335	1.3381062
H	2.3237837	-2.5626302	0.5746428
C	1.4401410	-1.1754199	-0.7544757
C	2.2377750	-1.6259807	-1.9604144
H	2.7982085	-0.8048730	-2.4228855
H	2.9526356	-2.3966112	-1.6651927
H	1.5858163	-2.0507907	-2.7353066
C	0.3958354	0.6364745	-2.1969347
C	-1.0125418	1.2723001	-2.0716239
H	-2.2730948	1.3998606	-0.2718768
H	-0.8250683	2.4185205	-0.2294709
H	-1.0238099	-0.5238129	0.4389989
H	0.1837428	0.6660615	0.9561133
H	0.4776078	0.0182063	-3.0937990
H	-1.1032859	2.2110821	-2.6259985
H	-1.7421188	0.5657029	-2.4825049
C	5.8978970	2.0124966	-0.0198125
H	6.6777054	1.4714678	-0.5888201
O	6.1048828	3.1665365	0.3718005
C	4.6258781	1.2485534	0.2198475
H	4.8396445	0.3222583	0.7696912
H	3.9160780	1.8557681	0.7855779
H	4.1772352	0.9523315	-0.7376417
