31
-0.0017159 (energy)
C	2.4879944	-0.2354778	0.0170514
O	3.3391290	-0.9569247	0.5457525
O	2.6662146	1.1267623	-0.1154677
H	3.5222995	1.3981456	0.2828763
N	0.0000000	0.0000000	0.0000000
C	0.3867849	0.9511111	-2.1625000
C	-0.4770744	1.0739013	-0.8867300
C	-1.4651941	0.6428245	1.8065492
H	-1.8647215	1.4994902	1.2792715
H	-1.8670660	0.4480989	2.7926367
C	-0.5181729	-0.1734798	1.2873592
C	0.0021994	-1.3647745	2.0642395
H	1.0907643	-1.3383269	2.1927298
H	-0.4530207	-1.3878773	3.0563553
H	-0.2421878	-2.3090888	1.5597427
C	1.1534488	-0.7154613	-0.5473508
C	1.0280986	-0.4529642	-2.0701397
H	-0.2077541	1.0669209	-3.0736198
H	1.1648954	1.7184391	-2.1638920
H	-1.5489457	0.9327175	-1.0862167
H	-0.3562146	2.0577034	-0.4130219
H	1.1093367	-1.7830517	-0.3201663
H	1.9880723	-0.5185132	-2.5907461
H	0.3623870	-1.2138179	-2.4924136
C	7.1040020	-1.7757434	-2.4102439
H	7.8838105	-1.9980040	-1.6571955
O	7.3109879	-2.0136165	-3.6054784
C	5.8319832	-1.1862202	-1.8684797
H	6.0457496	-0.2468940	-1.3412064
H	5.1221831	-0.9998906	-2.6772083
H	5.3833403	-1.8673192	-1.1331995
