31
-0.00343457 (energy)
C	0.1264622	1.8952109	2.7215848
O	0.0791541	1.1326743	3.6915026
O	-0.7970043	2.9050352	2.5413459
H	-1.4641655	2.8885201	3.2623393
N	0.5861335	1.7585924	0.2688528
C	1.2418814	4.0436104	0.5504703
C	0.5269250	3.0644542	-0.4081799
C	-0.6992374	0.6486352	-1.4456308
H	-0.8605636	1.5533598	-2.0174412
H	-1.1120666	-0.2648282	-1.8542188
C	-0.0117281	0.6195259	-0.2797646
C	0.1925429	-0.6755247	0.4782794
H	-0.1802999	-0.6217639	1.5079789
H	-0.3328656	-1.4879912	-0.0275831
H	1.2559701	-0.9442803	0.5318004
C	1.1695784	1.8414977	1.6084947
C	2.0187715	3.1363380	1.5325802
H	1.9077840	4.7281427	0.0166003
H	0.5057151	4.6401949	1.0948930
H	1.0238977	2.9909425	-1.3860603
H	-0.5136565	3.3669590	-0.5886076
H	1.7883078	0.9695056	1.8323510
H	2.1711964	3.5998173	2.5117792
H	3.0019972	2.8745028	1.1262615
C	3.6668166	1.1294567	-1.7723625
H	2.7093682	0.9552023	-2.2991555
O	3.8629517	0.6261163	-0.6605210
C	4.6572922	1.9936659	-2.5011825
H	4.2194431	2.9798718	-2.7054690
H	5.5685875	2.1117191	-1.9111138
H	4.9028065	1.5482229	-3.4743817
