31
-0.0010166 (energy)
C	-0.5880419	-0.3665806	-1.9228898
O	-1.5295322	-0.9216901	-2.4972506
O	0.2594915	0.5009982	-2.5816886
H	0.0073305	0.5692952	-3.5287675
N	1.1697880	-0.9478104	-0.2441812
C	1.0895900	1.3965221	0.2336210
C	2.0420867	0.1864383	0.1018376
C	3.0152848	-2.4868065	-0.4661485
H	3.7671153	-1.7321361	-0.2744623
H	3.3703114	-3.4963451	-0.6291684
C	1.6880388	-2.2218523	-0.4974107
C	0.6756700	-3.3165256	-0.7625776
H	0.0305052	-3.0919959	-1.6202091
H	1.1914580	-4.2568802	-0.9669024
H	0.0201142	-3.4737042	0.1043209
C	-0.2226940	-0.5481552	-0.4520065
C	-0.3220514	0.7757866	0.3484994
H	1.3321172	2.0173268	1.1012672
H	1.1516696	2.0218412	-0.6604551
H	2.5755889	-0.0360178	1.0369977
H	2.7979006	0.3532951	-0.6777632
H	-0.9179411	-1.2995931	-0.0708499
H	-1.1102607	1.4367514	-0.0239637
H	-0.5544560	0.5266130	1.3897900
C	4.0998562	-3.9655121	4.0281727
H	4.8529621	-3.8036170	4.8226564
O	3.3989345	-4.9836698	4.0368736
C	4.0143661	-2.8832292	2.9887337
H	4.9852598	-2.7608989	2.4902886
H	3.2491674	-3.1243323	2.2478444
H	3.7785028	-1.9215588	3.4634671
