31
-0.00100504 (energy)
C	1.8328326	-2.1001196	1.8014059
O	1.7563166	-1.7257700	2.9754794
O	3.0444607	-2.2220939	1.1517127
H	3.7780651	-1.9510775	1.7463411
N	0.6163598	-1.7336551	-0.3507452
C	1.4765399	-3.9039118	-0.8805538
C	1.1710567	-2.5091565	-1.4723792
C	0.4321062	0.2904365	-1.6517989
H	0.8755464	-0.1473831	-2.5367818
H	0.1085360	1.3205507	-1.7289648
C	0.2639414	-0.3876677	-0.4922061
C	-0.3698250	0.2696290	0.7160218
H	0.2766552	0.2322994	1.6008115
H	-0.5821959	1.3183183	0.4987615
H	-1.3168645	-0.2167618	0.9853020
C	0.6461185	-2.4682086	0.9147458
C	0.6919999	-3.9469359	0.4513197
H	1.1759053	-4.7110139	-1.5552633
H	2.5475510	-4.0029553	-0.6872262
H	0.4351471	-2.5475386	-2.2882221
H	2.0785955	-2.0334225	-1.8685151
H	-0.2413219	-2.2652399	1.5185348
H	1.1479493	-4.6085741	1.1937632
H	-0.3375390	-4.2833790	0.2862703
C	5.7011036	-0.0330666	-3.3610179
H	6.7425115	-0.0298880	-2.9867955
O	5.4757495	-0.1989707	-4.5650542
C	4.6390194	0.1733302	-2.3177272
H	4.7932856	1.1330104	-1.8065885
H	3.6468071	0.1555385	-2.7735506
H	4.7066776	-0.6089872	-1.5501237
