31
-0.00314765 (energy)
C	-0.0318148	-0.4296236	1.9980218
O	0.5803739	-1.1608282	2.7822448
O	-0.8101088	0.6222278	2.4372130
H	-0.8062772	0.6615106	3.4188700
N	-1.3715899	-0.6597686	-0.0990935
C	-0.6556502	1.5943289	-0.4693582
C	-1.8512644	0.6277137	-0.6277292
C	-3.5022883	-1.7480997	-0.4142077
H	-3.9926440	-0.8526390	-0.7736815
H	-4.1005590	-2.6495908	-0.3799537
C	-2.2050265	-1.7806093	-0.0284421
C	-1.5638452	-3.0626971	0.4600770
H	-1.1329282	-2.9601313	1.4630595
H	-2.3087945	-3.8601588	0.4941088
H	-0.7552498	-3.3858239	-0.2090522
C	-0.0296729	-0.5700323	0.4780788
C	0.5644909	0.6753051	-0.2287504
H	-0.5197440	2.2272181	-1.3514062
H	-0.8107621	2.2442648	0.3953808
H	-2.1564842	0.5003189	-1.6761791
H	-2.7290717	0.9797265	-0.0687887
H	0.5583089	-1.4669124	0.2702534
H	1.3528898	1.1575760	0.3566719
H	1.0009207	0.3503253	-1.1796987
C	3.4978390	-2.2163199	-2.0114282
H	4.3044367	-1.7222061	-2.5857406
O	3.0467748	-1.6827017	-0.9917200
C	3.0260869	-3.5329739	-2.5618375
H	3.8631280	-4.2419547	-2.6143276
H	2.2330406	-3.9470290	-1.9355687
H	2.6563532	-3.4027245	-3.5875789
