31
-0.00303269 (energy)
C	1.5805818	-0.9551928	0.8758126
O	2.2017919	-0.8991463	1.9413630
O	1.6755598	-2.0432643	0.0319518
H	2.3030214	-2.7043536	0.3986413
N	0.9873285	0.5691082	-1.0137412
C	-0.8710694	-0.9196292	-1.2599917
C	0.1597582	-0.0773601	-2.0454195
C	2.4494681	1.6053697	-2.6298931
H	1.9576896	1.1504722	-3.4800356
H	3.2731615	2.2739339	-2.8451571
C	2.0748567	1.3823082	-1.3482262
C	2.7920568	2.0504304	-0.1937783
H	3.1848956	1.3271558	0.5306074
H	3.6310319	2.6394464	-0.5695892
H	2.1237245	2.7280679	0.3540455
C	0.6493207	0.1293670	0.3406222
C	-0.8099240	-0.3702758	0.1842081
H	-1.8764961	-0.8374810	-1.6835442
H	-0.5816335	-1.9733526	-1.2719936
H	-0.3122714	0.6941605	-2.6703834
H	0.7735157	-0.7062976	-2.7046710
H	0.7167221	0.9500046	1.0584793
H	-1.0842120	-1.1160190	0.9362125
H	-1.4781046	0.4899309	0.3023796
C	5.8149175	-0.5786505	0.0421250
H	5.9975606	0.5110277	-0.0197278
O	4.6579484	-1.0114861	0.0878200
C	7.0464741	-1.4399624	0.0642206
H	7.6795271	-1.1716920	0.9205627
H	6.7736488	-2.4955876	0.1258521
H	7.6453986	-1.2656538	-0.8395047
