31
-0.00284273 (energy)
C	0.2650263	0.4153634	-0.0060674
O	0.9506230	-0.5415387	0.3664059
O	-1.0651976	0.2720432	-0.3451623
H	-1.3372399	-0.6685738	-0.2649078
N	0.5138615	2.4217288	-1.4752289
C	-1.1871610	3.3243933	-0.0531386
C	-0.6909923	3.2666162	-1.5158067
C	0.8318602	2.5087842	-3.8658219
H	-0.0628160	3.0924074	-4.0403460
H	1.4308710	2.2657939	-4.7341129
C	1.2205570	2.0946944	-2.6369181
C	2.4866092	1.2859382	-2.4457674
H	2.3011579	0.3297492	-1.9422860
H	2.9403105	1.0727864	-3.4157026
H	3.2234180	1.8328405	-1.8424581
C	0.7611058	1.8517114	-0.1501356
C	0.0123259	2.8316639	0.7892925
H	-1.4989834	4.3327175	0.2350924
H	-2.0391551	2.6532450	0.0807111
H	-0.4281828	4.2574767	-1.9130002
H	-1.4514102	2.8353247	-2.1811078
H	1.8285715	1.8144744	0.0788585
H	-0.2909483	2.3654389	1.7313839
H	0.6892065	3.6602590	1.0251913
C	3.4805217	-2.5010755	3.9006954
H	3.3934227	-3.5888409	3.7169479
O	3.4001594	-2.0586890	5.0521502
C	3.6952180	-1.6543565	2.6775640
H	2.8665065	-1.7949546	1.9707994
H	3.7695839	-0.5996961	2.9509464
H	4.6110016	-1.9665245	2.1582328
