31
-0.00283713 (energy)
C	1.6428862	-2.5000616	1.2412377
O	2.0935215	-3.6495007	1.2286578
O	0.9427553	-2.0023727	2.3215822
H	0.8548370	-2.6912487	3.0165127
N	0.4975240	-0.9339126	-0.3339382
C	1.4838828	0.7427514	1.0612375
C	0.2127020	0.3830977	0.2589482
C	-1.6965848	-1.1258491	-1.3201857
H	-2.0505603	-0.1931624	-0.9002846
H	-2.3885810	-1.6684433	-1.9514703
C	-0.4542370	-1.6160077	-1.0986534
C	-0.0051190	-2.9235456	-1.7168373
H	0.3342327	-3.6472768	-0.9663465
H	-0.8310594	-3.3750575	-2.2700211
H	0.8256378	-2.7698569	-2.4184029
C	1.7784652	-1.4879466	0.1066949
C	2.5690065	-0.2246904	0.5341664
H	1.7724360	1.7893746	0.9257945
H	1.3156381	0.5712047	2.1273122
H	-0.0005037	1.1051191	-0.5422162
H	-0.6726681	0.3389903	0.9078300
H	2.2843153	-2.0227027	-0.7004355
H	3.3435928	-0.4416518	1.2756656
H	3.0588763	0.1867218	-0.3553015
C	5.2054109	3.0684087	-0.9520779
H	5.1584453	2.6778146	-1.9863957
O	4.6962594	2.4292740	-0.0245631
C	5.9122109	4.3849452	-0.7900798
H	5.4221575	5.1543347	-1.4015816
H	5.9111730	4.6930214	0.2576152
H	6.9464539	4.3050866	-1.1503262
