31
-0.00823874 (energy)
C	1.6391433	-1.3357547	1.6769020
O	0.8117044	-1.8477504	2.4202436
O	2.9814566	-1.3476215	2.0308289
H	3.5590065	-0.9340061	1.3575163
N	0.4030069	-1.4244716	-0.4935938
C	-0.2452368	-3.5550811	-1.4319778
H	-1.3048850	-3.3377502	-1.3884975
H	0.0381502	-4.5093702	-1.8571578
C	0.7020064	-2.7074002	-0.9724778
C	2.1709654	-3.0734129	-1.0140896
H	2.6192638	-3.1259196	-0.0140527
H	2.2965862	-4.0544080	-1.4766227
H	2.7473126	-2.3463755	-1.6021371
C	-0.6800669	0.6554695	-0.3718685
C	-0.9415830	-0.8404722	-0.5985920
C	1.2910854	-0.6264809	0.3563372
C	0.4614418	0.6622581	0.6674629
H	-0.3540305	1.1230737	-1.3078930
H	-1.5641101	1.1906593	-0.0131315
H	-1.3566777	-1.0542587	-1.5890589
H	-1.6277098	-1.2542332	0.1566277
H	2.2186462	-0.3741204	-0.1807066
H	0.0449835	0.5831791	1.6767403
H	1.0805646	1.5625021	0.6223160
C	3.5615134	1.5265396	3.6181462
H	4.0603670	0.5521765	3.7804561
O	3.2875038	1.8991278	2.4718003
C	3.2634642	2.3150333	4.8625426
H	4.1921398	2.5177907	5.4125406
H	2.7733568	3.2575930	4.6096537
H	2.6186464	1.7320975	5.5335190
