31
-0.00402456 (energy)
C	-0.3833786	0.1430070	0.2483104
O	0.5836491	0.1151766	0.9989331
O	-0.2288268	-0.2112980	-1.0850281
H	-1.0664624	-0.1772436	-1.5901998
N	-2.2410691	-0.0633714	1.9076325
C	-2.4128369	-2.0350880	3.2943953
H	-2.2906566	-1.4874295	4.2202029
H	-2.5729083	-3.1023530	3.3785166
C	-2.3573465	-1.4498560	2.0772686
C	-2.4900157	-2.2639602	0.8071621
H	-1.5900238	-2.2158471	0.1814610
H	-2.6559661	-3.3143381	1.0546203
H	-3.3390861	-1.9216872	0.2001299
C	-2.5898869	2.2186622	2.3373644
C	-2.3282514	0.8759094	3.0346430
C	-1.7935652	0.5885616	0.6737043
C	-1.7650508	2.1094756	1.0369716
H	-3.6574789	2.3195939	2.1111889
H	-2.2871059	3.0772412	2.9438448
H	-3.1453591	0.5752809	3.6987144
H	-1.3982413	0.8959434	3.6237140
H	-2.5027502	0.3957041	-0.1462552
H	-0.7301498	2.4112192	1.2273997
H	-2.1574486	2.7268309	0.2241451
C	4.1543348	2.8100981	0.5042740
H	4.7603204	2.8194505	1.4301665
O	3.8011790	3.8743291	-0.0160197
C	3.8180149	1.4476864	-0.0340579
H	3.2634624	0.8708356	0.7181133
H	3.2211587	1.5330595	-0.9445802
H	4.7384953	0.8881293	-0.2471897
