31
-0.00398386 (energy)
C	-0.3833786	0.2691606	0.0982937
O	0.5836491	0.7303322	0.6911931
O	-0.2288268	-0.8593063	-0.6953600
H	-1.0664624	-1.1579372	-1.1042337
N	-2.2410691	1.1776572	1.5020657
C	-2.4128369	0.5586286	3.8317825
H	-2.2906566	1.5732569	4.1889643
H	-2.5729083	-0.2048717	4.5822479
C	-2.3573465	0.2245884	2.5232295
C	-2.4900157	-1.2154604	2.0735676
H	-1.5900238	-1.5807964	1.5633262
H	-2.6559661	-1.8610335	2.9383015
H	-3.3390861	-1.3434568	1.3885451
C	-2.5898869	3.2020227	0.3643964
C	-2.3282514	2.6216165	1.7616477
C	-1.7935652	0.8839131	0.1377673
C	-1.7650508	2.2825046	-0.5615784
H	-3.6574789	3.1339581	0.1262583
H	-2.2871059	4.2495705	0.2771035
H	-3.1453591	2.8181785	2.4635962
H	-1.3982413	3.0156109	2.2000246
H	-2.5027502	0.2091159	-0.3663917
H	-0.7301498	2.6360584	-0.6096590
H	-2.1574486	2.2329514	-1.5810680
C	3.9069353	2.1780137	-2.1118015
H	3.0743130	2.0770316	-2.8336919
O	4.6666015	3.1511705	-2.1741325
C	4.0208309	1.0739710	-1.0982949
H	4.1508294	0.1083083	-1.6048940
H	4.8652616	1.2543789	-0.4297393
H	3.0948874	1.0022963	-0.5123728
