31
-0.0039271 (energy)
C	-0.1340742	-0.3066446	0.3421716
O	1.0892030	-0.2802177	0.2947781
O	-0.8727342	0.4867927	-0.5250357
H	-1.8391183	0.3726709	-0.4198248
N	-0.4905560	-2.5447726	1.3960500
C	0.2692560	-4.5462466	0.2748592
H	0.9579492	-4.8185971	1.0644822
H	0.2007063	-5.2247934	-0.5657531
C	-0.4705898	-3.4152820	0.2976643
C	-1.3886291	-3.0535806	-0.8512105
H	-1.1013882	-2.1134264	-1.3384525
H	-1.3566915	-3.8353164	-1.6127471
H	-2.4292475	-2.9523829	-0.5144142
C	-0.4815395	-1.8830226	3.6490539
C	0.1670869	-2.8713386	2.6691809
C	-0.9409019	-1.1510887	1.3441937
C	-0.6855547	-0.6157553	2.7913190
H	-1.4447453	-2.2768056	3.9929505
H	0.1402424	-1.6875315	4.5275886
H	-0.0319971	-3.9170667	2.9257964
H	1.2581635	-2.7344104	2.6132586
H	-2.0112289	-1.0983271	1.0910392
H	0.2296303	-0.0151175	2.7929640
H	-1.5086237	0.0137265	3.1407481
C	4.3139119	-1.7509233	-2.8354228
H	4.4448521	-2.7071836	-2.2941246
O	4.2500067	-1.7412775	-4.0698600
C	4.2255147	-0.5253610	-1.9698240
H	5.1338129	-0.4272336	-1.3603879
H	4.0974608	0.3682577	-2.5843356
H	3.3833873	-0.6165919	-1.2710310
