31
-0.00391989 (energy)
C	-0.3833786	-0.2693709	0.0977158
O	0.5836491	-1.0037573	-0.0600362
O	-0.2288268	1.1052356	-0.0196747
H	-1.0664624	1.5968191	0.1015845
N	-2.2410691	-1.8676470	-0.3936657
C	-2.4128369	-2.8909565	-2.5762364
H	-2.2906566	-3.8977989	-2.1976630
H	-2.5729083	-2.7884711	-3.6418947
C	-2.3573465	-1.7939452	-1.7885435
C	-2.4900157	-0.4017667	-2.3697278
H	-1.5900238	0.2060737	-2.2136937
H	-2.6559661	-0.4630692	-3.4471188
H	-3.3390861	0.1366081	-1.9272447
C	-2.5898869	-2.6871213	1.7790765
C	-2.3282514	-3.1406401	0.3356419
C	-1.7935652	-0.7656719	0.4626325
C	-1.7650508	-1.3875244	1.8973596
H	-3.6574789	-2.4819086	1.9177498
H	-2.2871059	-3.4334787	2.5192975
H	-3.1453591	-3.7424191	-0.0757342
H	-1.3982413	-3.7242406	0.2530804
H	-2.5027502	0.0753200	0.4150894
H	-0.7301498	-1.6274567	2.1614515
H	-2.1574486	-0.6942492	2.6464818
C	3.4586895	0.7698113	-2.7911991
H	4.2117954	0.1351081	-3.2957448
O	2.7577679	1.5441725	-3.4523237
C	3.3731993	0.6088730	-1.2992647
H	4.3440931	0.8355569	-0.8388011
H	2.6080007	1.2698033	-0.8866886
H	3.1373359	-0.4329620	-1.0447817
