31
-0.00497637 (energy)
C	2.1665756	2.1181883	0.7034323
O	2.2086877	2.9097752	-0.2298245
O	1.7980946	2.5630059	1.9657988
H	1.7741415	1.8469094	2.6325997
N	1.8818181	-0.0279271	-0.5455904
C	-0.0714310	-0.3762431	-1.9253640
H	0.4989061	-0.4769991	-2.8399903
H	-1.1445445	-0.4929341	-2.0063862
C	0.4941679	-0.1023943	-0.7286695
C	-0.3488914	0.0733345	0.5170863
H	-0.2595207	1.0790977	0.9463358
H	-1.4025696	-0.0836758	0.2779651
H	-0.0676916	-0.6494113	1.2949839
C	4.1469181	-0.5793181	-0.8272123
C	2.8344241	-0.3956552	-1.6026239
C	2.5365799	0.6288402	0.5892219
C	4.0628211	0.5005120	0.2728752
H	4.1812845	-1.5811864	-0.3842968
H	5.0324252	-0.4544062	-1.4572336
H	2.4985348	-1.3148478	-2.0938433
H	2.9192592	0.3905093	-2.3688309
H	2.2880045	0.1152715	1.5309907
H	4.4278301	1.4562839	-0.1164840
H	4.6415692	0.2516829	1.1667014
C	0.6693804	-2.7837325	3.3252886
H	0.2126487	-3.2485991	2.4309295
O	1.6449965	-2.0343601	3.2043497
C	0.0227176	-3.1328200	4.6364115
H	0.0471754	-4.2196790	4.7919305
H	0.5353025	-2.6324272	5.4606934
H	-1.0349887	-2.8379229	4.6260941
