31
-0.00382983 (energy)
C	1.3642359	1.0605651	-2.5864358
O	1.0817556	0.2789442	-3.4856718
O	0.9431253	2.3809952	-2.6660617
H	1.2014174	2.9133171	-1.8863758
N	1.7453338	-0.5421512	-0.7068027
C	-0.0547451	-1.9614473	0.0584394
H	0.4608127	-2.8796745	-0.1926311
H	-1.0286496	-2.0615018	0.5202327
C	0.4555782	-0.7353800	-0.1931593
C	-0.3218411	0.5219650	0.1358390
H	-0.5511317	1.1193422	-0.7554344
H	-1.2732916	0.2592121	0.6024992
H	0.2320387	1.1625411	0.8354381
C	4.0428275	-0.9152427	-1.0172000
C	2.7015718	-1.6469813	-0.8647939
C	2.2067915	0.6894673	-1.3533537
C	3.6654249	0.3556426	-1.8082221
H	4.4388800	-0.6530287	-0.0295354
H	4.7954409	-1.5140019	-1.5384612
H	2.6663713	-2.2903541	0.0205679
H	2.4709857	-2.2650319	-1.7463654
H	2.2021221	1.5277481	-0.6393969
H	3.6633697	0.1381667	-2.8810837
H	4.3461673	1.1926807	-1.6300441
C	3.1425082	3.8818896	1.9671872
H	2.5714369	3.4952241	2.8326063
O	3.6587469	3.0963427	1.1644257
C	3.2267133	5.3791049	1.8655306
H	3.6938997	5.7932097	2.7690244
H	3.8053932	5.6706438	0.9864906
H	2.2188553	5.8106343	1.8037414
