31
-0.00381757 (energy)
C	-0.4451852	0.0994240	0.1449594
O	0.2067955	-0.2810944	1.1090540
O	0.1560746	0.1769339	-1.1039156
H	-0.4582665	0.4692784	-1.8075570
N	-2.7583648	-0.4104958	0.9425418
C	-3.3940744	-2.6889073	1.4375120
H	-3.5959075	-2.4861181	2.4815990
H	-3.5732635	-3.7001197	1.0953209
C	-2.9256488	-1.7542832	0.5807576
C	-2.6159150	-2.0955671	-0.8618538
H	-1.5561969	-1.9545381	-1.1086542
H	-2.8564930	-3.1427185	-1.0559286
H	-3.2061630	-1.4795169	-1.5536983
C	-3.2331234	1.6366050	1.9903984
C	-3.2257498	0.1201235	2.2309503
C	-1.9158204	0.5463498	0.2197551
C	-2.0132704	1.8554540	1.0698759
H	-4.1589752	1.9290257	1.4820836
H	-3.1560308	2.2130676	2.9168974
H	-4.2207055	-0.2802199	2.4519057
H	-2.5533002	-0.1591650	3.0568646
H	-2.3017937	0.7116119	-0.7981762
H	-1.1059119	1.9567373	1.6738413
H	-2.1040008	2.7427175	0.4371658
C	3.5485133	2.6927859	0.8336339
H	2.7954074	2.8123837	1.6355757
O	4.2494351	3.6525171	0.4935797
C	3.6340034	1.3202636	0.2270434
H	2.6631097	1.0348324	-0.1995024
H	4.3992022	1.2934272	-0.5516269
H	3.8698667	0.5789574	1.0020576
