31
-0.00363621 (energy)
C	3.9224464	-1.1643326	1.4223549
O	3.3160090	-1.7347161	2.3202679
O	4.9144493	-1.8407245	0.7254802
H	5.3187825	-1.3023818	0.0150625
N	2.2676101	0.6110685	0.8253427
C	0.0816141	-0.0003522	-0.0040350
H	-0.4445455	0.4607906	0.8220891
H	-0.5272199	-0.4565972	-0.7740451
C	1.4298617	-0.0370978	-0.0926412
C	2.1228742	-0.7325145	-1.2457529
H	2.7443646	-1.5744805	-0.9161395
H	1.3802405	-1.1310843	-1.9398034
H	2.7668530	-0.0380838	-1.8021851
C	2.9983215	2.2884574	2.2972286
C	1.7471376	1.5107212	1.8644458
C	3.6871468	0.3016201	1.0177293
C	4.1232975	1.2363503	2.1933175
H	3.1794918	3.1184573	1.6048611
H	2.9135597	2.6993773	3.3074826
H	0.9729082	2.1554166	1.4355288
H	1.3022616	0.9532374	2.7032675
H	4.2606516	0.5274778	0.1052867
H	4.1696595	0.6500702	3.1166042
H	5.1092483	1.6750908	2.0166867
C	5.6749702	0.9450832	-3.8704144
H	5.8546412	-0.1445950	-3.9404331
O	4.7593082	1.3779188	-3.1617336
C	6.6041946	1.8063951	-4.6789700
H	6.5386952	1.5381246	-5.7418847
H	6.3555822	2.8620203	-4.5508139
H	7.6439007	1.6320866	-4.3716574
