31
-0.00797072 (energy)
C	1.9202066	1.3731873	-0.8210475
O	1.3682661	2.4569112	-0.9633703
O	3.2963518	1.3205491	-0.6459367
H	3.6319037	0.4099906	-0.5183450
N	0.0000000	0.0000000	0.0000000
C	-1.0975568	0.5715068	2.0758203
H	-2.0549535	0.7584522	1.6063307
H	-1.0551890	0.6772918	3.1522814
C	0.0128512	0.2373002	1.3813615
C	1.3416057	0.0282279	2.0772332
H	2.1059365	0.7425341	1.7465262
H	1.2215519	0.1588557	3.1545411
H	1.7299965	-0.9840052	1.9008919
C	-0.8084649	-0.7559419	-2.0709798
C	-1.2471360	-0.0583096	-0.7754056
C	1.1879177	0.0202325	-0.8580778
C	0.6213944	-0.2191434	-2.2960299
H	-0.7954798	-1.8418769	-1.9237664
H	-1.4671518	-0.5341523	-2.9157246
H	-1.9976248	-0.6288188	-0.2183428
H	-1.6554205	0.9455426	-0.9701090
H	1.8855081	-0.7829766	-0.5740114
H	0.5795299	0.7374711	-2.8265657
H	1.2529710	-0.9019838	-2.8710347
C	6.8055975	-1.5580818	-0.0151789
H	6.9983807	-1.0170055	0.9306826
O	5.7027735	-1.4689940	-0.5664092
C	7.9553250	-2.3715038	-0.5401068
H	8.2573139	-3.1217670	0.2028298
H	7.6778738	-2.8686617	-1.4720035
H	8.8272222	-1.7263003	-0.7113410
