31
-0.00350671 (energy)
C	1.9202066	1.0095592	-1.2411900
O	1.3682661	1.9792493	-1.7455851
O	3.2963518	1.0199868	-1.0586364
H	3.6319037	0.2079808	-0.6273100
N	0.0000000	0.0000000	0.0000000
C	-1.0975568	1.2470131	1.7551662
H	-2.0549535	1.2621094	1.2500512
H	-1.0551890	1.7145899	2.7305281
C	0.0128512	0.6954428	1.2168938
C	1.3416057	0.7369811	1.9423062
H	2.1059365	1.2951009	1.3872362
H	1.2215519	1.2281921	2.9099672
H	1.7299965	-0.2745191	2.1228037
C	-0.8084649	-1.4186698	-1.6875371
C	-1.2471360	-0.3199974	-0.7086998
C	1.1879177	-0.2744676	-0.8132493
C	0.6213944	-0.9912159	-2.0826109
H	-0.7954798	-2.3887650	-1.1777901
H	-1.4671518	-1.4991756	-2.5571941
H	-1.9976248	-0.6655741	0.0098936
H	-1.6554205	0.5567226	-1.2349988
H	1.8855081	-0.9320808	-0.2716005
H	0.5795299	-0.2737463	-2.9083329
H	1.2529710	-1.8295392	-2.3893935
C	2.1432330	-4.5509447	-5.0580322
H	2.9653514	-5.2395130	-5.3311220
O	2.3189614	-3.6899796	-4.1886240
C	0.8561000	-4.7520573	-5.8076457
H	0.4840939	-5.7735266	-5.6518933
H	0.1041414	-4.0329668	-5.4759172
H	1.0256418	-4.6376369	-6.8865233
