31
-0.00333245 (energy)
C	2.1665756	-1.1704687	-1.9004056
O	2.2086877	-2.3767455	-1.6943118
O	1.7980946	-0.6997852	-3.1533577
H	1.7741415	0.2773879	-3.2038588
N	1.8818181	-0.3293053	0.4358977
C	-0.0714310	-0.9493812	1.7167588
H	0.4989061	-1.4601082	2.4821679
H	-1.1445445	-0.9120708	1.8538329
C	0.4941679	-0.3899412	0.6240110
C	-0.3488914	0.2761993	-0.4432496
H	-0.2595207	-0.2183438	-1.4185660
H	-1.4025696	0.2427719	-0.1591479
H	-0.0676916	1.3298776	-0.5745816
C	4.1469181	-0.0879384	1.0060599
C	2.8344241	-0.7270574	1.4820034
C	2.5365799	-0.1029749	-0.8555809
C	4.0628211	-0.2080136	-0.5307575
H	4.1812845	0.9642378	1.3107555
H	5.0324252	-0.5885965	1.4083923
H	2.4985348	-0.3386648	2.4491449
H	2.9192592	-1.8218027	1.5636152
H	2.2880045	0.8957989	-1.2469019
H	4.4278301	-1.1904526	-0.8468494
H	4.6415692	0.5571409	-1.0555237
C	7.1293213	-3.3148807	2.6344381
H	6.5161281	-3.1508652	3.5409015
O	6.9439533	-2.6226451	1.6272337
C	8.1582384	-4.4055069	2.7390427
H	7.6722913	-5.3616740	2.9749384
H	8.7144407	-4.4973213	1.8037429
H	8.8529044	-4.1915511	3.5621316
