31
-0.00325038 (energy)
C	2.1665756	-1.1704687	-1.9004056
O	2.2086877	-2.3767455	-1.6943118
O	1.7980946	-0.6997852	-3.1533577
H	1.7741415	0.2773879	-3.2038588
N	1.8818181	-0.3293053	0.4358977
C	-0.0714310	-0.9493812	1.7167588
H	0.4989061	-1.4601082	2.4821679
H	-1.1445445	-0.9120708	1.8538329
C	0.4941679	-0.3899412	0.6240110
C	-0.3488914	0.2761993	-0.4432496
H	-0.2595207	-0.2183438	-1.4185660
H	-1.4025696	0.2427719	-0.1591479
H	-0.0676916	1.3298776	-0.5745816
C	4.1469181	-0.0879384	1.0060599
C	2.8344241	-0.7270574	1.4820034
C	2.5365799	-0.1029749	-0.8555809
C	4.0628211	-0.2080136	-0.5307575
H	4.1812845	0.9642378	1.3107555
H	5.0324252	-0.5885965	1.4083923
H	2.4985348	-0.3386648	2.4491449
H	2.9192592	-1.8218027	1.5636152
H	2.2880045	0.8957989	-1.2469019
H	4.4278301	-1.1904526	-0.8468494
H	4.6415692	0.5571409	-1.0555237
C	2.7386439	3.8586421	2.6951990
H	2.7126451	3.1346446	3.5317004
O	2.9467277	3.4657561	1.5417893
C	2.5082892	5.2942954	3.0758753
H	3.2642555	5.6178674	3.8037922
H	2.5508082	5.9354737	2.1928921
H	1.5309159	5.4032226	3.5644340
