31
-0.0049631 (energy)
C	-0.0233538	0.4740735	0.0616212
O	-1.1569260	0.0141028	0.1144666
O	1.0540753	-0.3758044	-0.1482931
H	1.9103846	0.0957536	-0.1968616
N	-0.5315235	2.8396586	-0.5650577
C	-1.6466111	3.3266162	-2.6530551
H	-2.5094742	3.7733838	-2.1757255
H	-1.6394265	3.3192290	-3.7354819
C	-0.6202937	2.7815968	-1.9626932
C	0.5459854	2.1279730	-2.6741046
H	0.6378624	1.0606554	-2.4370523
H	0.4146556	2.2089599	-3.7549665
H	1.4962259	2.6126485	-2.4120129
C	-0.7292734	3.7450272	1.5925390
C	-1.4639521	3.6320626	0.2489907
C	0.3133377	1.9636125	0.2514031
C	-0.0155184	2.3822718	1.7219587
H	0.0003964	4.5616997	1.5510263
H	-1.4058915	3.9345188	2.4309504
H	-1.6305008	4.6037356	-0.2276078
H	-2.4391076	3.1324259	0.3574331
H	1.3780360	2.1312135	0.0260180
H	-0.6978846	1.6458022	2.1582166
H	0.8846089	2.4238993	2.3414978
C	3.4015048	-1.6058334	1.7812779
H	2.7180054	-2.2156929	1.1604052
O	4.3229444	-0.9747077	1.2515217
C	3.1171138	-1.6172073	3.2571066
H	3.1639717	-2.6444035	3.6427478
H	3.8366243	-0.9919014	3.7899049
H	2.0989169	-1.2531249	3.4482412
