31
-0.00307649 (energy)
C	-2.0904962	0.1408811	-3.7913491
O	-1.0487707	-0.2931716	-4.2664891
O	-3.2983569	-0.4592141	-4.1202384
H	-4.0647417	-0.0505774	-3.6689493
N	-1.2065700	1.2889842	-1.7548104
C	-0.0651137	0.0165544	-0.0465127
H	0.8689703	0.5506592	-0.1656626
H	-0.0936728	-0.7477702	0.7194809
C	-1.1548862	0.2552171	-0.8096698
C	-2.4269706	-0.5480228	-0.6360484
H	-2.6911884	-1.1162202	-1.5366830
H	-2.3042072	-1.2676642	0.1758101
H	-3.2779546	0.1003184	-0.3869714
C	-0.8202172	3.4114962	-2.6820078
C	-0.1399422	2.2922049	-1.8807285
C	-2.1703344	1.3606835	-2.8565694
C	-1.7487916	2.6429358	-3.6465607
H	-1.4040469	4.0498686	-2.0091640
H	-0.1059070	4.0436892	-3.2174945
H	0.1774494	2.6154316	-0.8838232
H	0.7400368	1.8903104	-2.4065066
H	-3.1961713	1.4599410	-2.4689130
H	-1.1908297	2.3441086	-4.5397085
H	-2.6176097	3.2256969	-3.9648923
C	3.3505897	-1.4424005	-0.5662225
H	2.3931413	-1.9309313	-0.3031389
O	3.5467248	-0.2600462	-0.2635981
C	4.3410652	-2.3102165	-1.2907442
H	3.9032161	-2.6826522	-2.2264935
H	5.2523606	-1.7496121	-1.5094682
H	4.5865794	-3.1912803	-0.6830743
