31
-0.00298047 (energy)
C	0.3973493	1.0497485	2.9009877
O	-0.1756521	2.1295616	2.9718726
O	-0.0255988	-0.0062434	3.6967302
H	0.4837846	-0.8281891	3.5453193
N	1.3983365	1.2259420	0.6175832
C	-0.0314562	1.4552215	-1.3172049
H	0.3671386	2.4236202	-1.5916203
H	-0.7886844	1.0388247	-1.9691044
C	0.3620391	0.7801636	-0.2142855
C	-0.2559721	-0.5526539	0.1534062
H	-0.7762682	-0.5223306	1.1188981
H	-0.9904359	-0.8424197	-0.6006942
H	0.5037817	-1.3441689	0.2066748
C	3.4511122	2.2043293	1.2031523
C	2.2428702	2.3779467	0.2716783
C	1.6108315	0.7744490	1.9955728
C	2.8259244	1.6255996	2.4905955
H	4.1610811	1.4939605	0.7645003
H	3.9800557	3.1433184	1.3906919
H	2.5126040	2.3282814	-0.7884208
H	1.7246748	3.3331967	0.4485848
H	1.8506313	-0.2999842	2.0192468
H	2.4570529	2.4397768	3.1225617
H	3.5265535	1.0264263	3.0787288
C	2.6349414	-0.6273817	-2.6885441
H	2.6713613	0.4637268	-2.8694827
O	2.7855322	-1.0712556	-1.5447301
C	2.3967383	-1.4765405	-3.9056171
H	3.1858046	-1.3008024	-4.6489456
H	2.3758977	-2.5344597	-3.6355254
H	1.4465285	-1.1979730	-4.3802904
