31
-0.00760668 (energy)
C	2.0897985	0.1122417	-1.7038708
O	1.5288606	0.5511327	-2.6999005
O	3.3761775	-0.3990682	-1.8087574
H	3.7395924	-0.7011418	-0.9516270
N	0.8291838	1.3192245	0.0852628
C	0.8819428	3.7332214	0.1858440
H	-0.1844207	3.8387757	0.0318809
H	1.4444151	4.6462141	0.3335705
C	1.5138312	2.5383645	0.1832010
C	3.0150117	2.4429850	0.3589774
H	3.5133532	2.0057370	-0.5152491
H	3.4360090	3.4395439	0.5062881
H	3.2767923	1.8329321	1.2341150
C	-0.8819174	-0.2502327	0.4359158
C	-0.6372585	1.2356108	0.1358379
C	1.4454005	0.0489536	-0.3078583
C	0.2501905	-0.9592736	-0.3379644
H	-0.7886354	-0.4335291	1.5123897
H	-1.8716054	-0.5897163	0.1166643
H	-1.0141365	1.8962012	0.9236301
H	-1.0977886	1.5412174	-0.8164443
H	2.2001258	-0.2613991	0.4314264
H	-0.0545745	-1.1200234	-1.3770072
H	0.5260703	-1.9264553	0.0912679
C	6.2735909	-0.4341176	2.0645063
H	5.7680303	0.2583141	2.7641703
O	5.6865648	-0.8288238	1.0507906
C	7.6728172	-0.8296145	2.4450663
H	7.6735904	-1.3128545	3.4312333
H	8.0929673	-1.5108612	1.7021306
H	8.3077567	0.0623802	2.5287959
