31
-0.00297944 (energy)
C	-2.7075943	0.4261650	-1.4706818
O	-3.0692196	1.5707896	-1.2289931
O	-2.4361873	0.0531947	-2.7800486
H	-2.1328780	-0.8740043	-2.8594023
N	-1.7913272	-0.2315974	0.7597350
C	0.0795013	0.9724292	1.7034520
H	-0.4768240	1.3111107	2.5681916
H	1.1223904	1.2582402	1.6539720
C	-0.4731536	0.2422277	0.7092935
C	0.3338603	-0.1719406	-0.5034434
H	-0.0633925	0.2482932	-1.4358573
H	1.3626770	0.1794914	-0.4029417
H	0.3592574	-1.2646809	-0.6122229
C	-3.7508291	-1.1180765	1.7023529
C	-2.6254029	-0.1066781	1.9633608
C	-2.5604193	-0.6753556	-0.4062116
C	-3.9701811	-1.0186553	0.1774602
H	-3.4193642	-2.1248846	1.9808553
H	-4.6624247	-0.8918426	2.2631243
H	-2.0293381	-0.3527579	2.8483380
H	-3.0154270	0.9155545	2.0868378
H	-2.0979197	-1.5655456	-0.8602234
H	-4.6582289	-0.1970220	-0.0457906
H	-4.3771293	-1.9343293	-0.2604036
C	3.4291726	2.5772344	-0.8526400
H	3.4583701	2.1974675	-1.8916335
O	3.5850772	1.8000378	0.0958701
C	3.1935552	4.0549234	-0.7112268
H	2.2402944	4.3319193	-1.1809224
H	3.1802356	4.3407834	0.3426628
H	3.9795488	4.6144784	-1.2355603
