31
-0.00269894 (energy)
C	-1.3642358	1.7096365	-2.2116944
O	-1.0817555	2.8792081	-1.9844089
O	-0.9431252	1.1183793	-3.3950332
H	-1.2014173	0.1769906	-3.4661945
N	-1.7453338	0.8831847	0.1161153
C	0.0547451	0.9301138	1.7278829
H	-0.4608127	1.6066609	2.3975556
H	1.0286496	0.5802162	2.0454293
C	-0.4555782	0.5349709	0.5402781
C	0.3218411	-0.3786226	-0.3841154
H	0.5511318	0.0945541	-1.3470960
H	1.2732916	-0.6513857	0.0767655
H	-0.2320388	-1.3047812	-0.5890710
C	-4.0428274	1.3385426	0.2840232
C	-2.7015718	1.5724243	0.9939305
C	-2.2067914	0.8273051	-1.2737731
C	-3.6654248	1.3881451	-1.2121067
H	-4.4388800	0.3520930	0.5507716
H	-4.7954408	2.0893477	0.5419332
H	-2.6663713	1.1273650	1.9937886
H	-2.4709856	2.6449129	1.0883922
H	-2.2021221	-0.2101401	-1.6427672
H	-3.6633696	2.4260084	-1.5601980
H	-4.3461672	0.8153193	-1.8479141
C	4.3115039	2.0443234	1.1498042
H	4.7852422	2.2891280	0.1801519
O	3.6896752	0.9846696	1.2857272
C	4.4872618	3.0719472	2.2324753
H	4.0743416	4.0365007	1.9081602
H	3.9901177	2.7496236	3.1498258
H	5.5553339	3.2344838	2.4289878
