31
-0.00208724 (energy)
C	2.7840391	-1.3048386	0.4712865
O	3.6205615	-0.5378791	0.0115526
O	2.7893301	-1.5939271	1.8290824
H	2.0663413	-2.1976292	2.0952071
N	0.9991388	-1.1111732	-1.2675582
C	-0.0670579	1.0186256	-1.6767805
H	0.2697241	1.0757929	-2.7040523
H	-0.6909523	1.8298191	-1.3239708
C	0.2693352	0.0081896	-0.8444154
C	-0.1896625	-0.0069223	0.5987167
H	0.6482546	0.0239769	1.3063482
H	-0.8144507	0.8657383	0.7991464
H	-0.7824529	-0.9048053	0.8199972
C	1.7037762	-2.8374089	-2.6950095
C	1.3207789	-1.3505442	-2.6815070
C	1.7159986	-2.0233143	-0.3720326
C	2.4172455	-3.0320198	-1.3398763
H	0.7998902	-3.4548253	-2.7486964
H	2.3478083	-3.1015205	-3.5388819
H	0.4427553	-1.1319805	-3.2982221
H	2.1489165	-0.7122853	-3.0266713
H	1.0120775	-2.5458398	0.2942506
H	3.4734511	-2.7601881	-1.4340537
H	2.3599841	-4.0579177	-0.9656502
C	2.5378022	4.2760275	-0.1556984
H	2.4507032	4.6607803	0.8782078
O	2.4574399	5.0520233	-1.1145438
C	2.7524986	2.7934051	-0.2774128
H	1.9237870	2.2516282	0.1977311
H	2.8268644	2.5028310	-1.3274667
H	3.6682821	2.4997352	0.2525983
