31
-0.00177869 (energy)
C	-2.0818715	1.4323038	3.5183329
O	-2.8608365	0.5112522	3.3080258
O	-1.5678433	1.6199020	4.7941824
H	-0.9384303	2.3675444	4.8476751
N	-1.2065702	1.8114295	1.2081236
C	-0.0101984	0.0518442	0.0623333
H	-0.7324053	-0.0201819	-0.7409145
H	0.8538364	-0.5971176	-0.0012779
C	-0.1570590	0.8870563	1.1148662
C	0.8581941	0.9217378	2.2380740
H	0.4256677	0.6333806	3.2042898
H	1.6706574	0.2237811	2.0263461
H	1.2943470	1.9234638	2.3515420
C	-2.7829818	3.3946500	0.4853786
C	-2.1395081	2.0551490	0.0989664
C	-1.6425340	2.4515026	2.4523492
C	-2.8759992	3.3124226	2.0241717
H	-2.1325928	4.2224329	0.1806411
H	-3.7631690	3.5430133	0.0229133
H	-1.5826639	2.1067851	-0.8424641
H	-2.8883342	1.2528468	0.0101109
H	-0.8435415	3.0894069	2.8612013
H	-3.7933097	2.7895979	2.3131837
H	-2.8732604	4.2923614	2.5094581
C	4.2342227	2.6423631	-1.4564900
H	3.7604844	2.7439625	-2.4513932
O	4.8560514	3.5916237	-0.9663414
C	4.0584648	1.3064174	-0.7905798
H	4.4713851	0.5109559	-1.4252329
H	4.5556089	1.2955503	0.1816889
H	2.9903927	1.0864717	-0.6615092
