31
-0.00158648 (energy)
C	-0.4426712	-2.4181405	-0.4512149
O	0.6291585	-2.9031597	-0.1116724
O	-1.5824412	-3.2105917	-0.4636807
H	-2.3873771	-2.7201050	-0.7272950
N	0.0000000	0.0000000	0.0000000
C	0.4917624	0.7426085	2.2465492
H	1.4801288	1.1038031	1.9922900
H	0.1722262	0.8816533	3.2713990
C	-0.3217076	0.1295447	1.3580717
C	-1.6796259	-0.3990023	1.7706650
H	-1.7612169	-1.4865519	1.6507447
H	-1.8611828	-0.1753365	2.8237935
H	-2.4839557	0.0643537	1.1833710
C	0.8641097	0.6015549	-2.0989205
C	1.1721129	0.6567461	-0.5956827
C	-0.6229540	-0.9615825	-0.9138616
C	0.1399235	-0.7519400	-2.2629441
H	0.2023412	1.4304908	-2.3746431
H	1.7636525	0.6627542	-2.7183800
H	1.2503985	1.6804426	-0.2149598
H	2.1062682	0.1280263	-0.3504605
H	-1.6957592	-0.7442382	-1.0335341
H	0.8750235	-1.5538217	-2.3851969
H	-0.5392063	-0.7767537	-3.1196573
C	3.0947390	-2.5485710	4.7239417
H	3.4613451	-1.9259761	5.5621293
O	2.5520566	-3.6358092	4.9507041
C	3.3087675	-1.9749758	3.3512588
H	4.3790753	-1.8010021	3.1774163
H	2.9183723	-2.6523086	2.5887703
H	2.8115415	-0.9994570	3.2679368
