31
-0.000592981 (energy)
C	-2.4992559	0.0244543	0.0088138
O	-2.7254636	-0.3941525	-1.1194371
O	-3.4678627	-0.1008769	0.9953750
H	-3.1770223	0.2439047	1.8640114
N	0.0000000	0.0000000	0.0000000
C	1.1897922	-2.0834666	-0.2895560
H	1.6682427	-1.7703494	-1.2088058
H	1.4444171	-3.0686017	0.0798068
C	0.3020184	-1.3149443	0.3799246
C	-0.3758334	-1.8130506	1.6392674
H	-1.4652651	-1.8838030	1.5300208
H	-0.0103434	-2.8113405	1.8880709
H	-0.1665529	-1.1542179	2.4929070
C	0.3745304	2.1714920	-0.8114002
C	0.7386103	0.7006756	-1.0599577
C	-1.1970415	0.7330010	0.4214933
C	-1.0919549	2.0979919	-0.3346233
H	1.0164046	2.5869690	-0.0262432
H	0.4841545	2.7921677	-1.7054903
H	1.8101402	0.5034998	-0.9505113
H	0.4299832	0.3673676	-2.0629432
H	-1.1930069	0.8885969	1.5115596
H	-1.7629146	2.0791421	-1.1993717
H	-1.3804566	2.9373809	0.3041125
C	2.5442705	-5.3166321	3.6856456
H	3.0010023	-6.2781270	3.3831453
O	1.5686544	-5.3056065	4.4446342
C	3.1909332	-4.0860465	3.1141874
H	3.1664754	-4.1216213	2.0168346
H	2.6783482	-3.1873950	3.4638430
H	4.2486394	-4.0449987	3.4063960
