31
-0.0063856 (energy)
C	-0.0233538	0.1430070	-0.4561708
O	-1.1569260	0.1151765	0.0059883
O	1.0540753	-0.2112979	0.3443443
H	1.9103846	-0.1772434	-0.1284835
N	-0.5315235	-0.0633716	-2.8946391
C	-1.6466111	-2.0350883	-3.7367756
H	-2.5094742	-1.4874300	-4.0938684
H	-1.6394265	-3.1023534	-3.9174622
C	-0.6202937	-1.4498562	-3.0801563
C	0.5459854	-2.2639603	-2.5599977
H	0.6378624	-2.2158471	-1.4677314
H	0.4146556	-3.3143382	-2.8274440
H	1.4962259	-1.9216873	-2.9917982
C	-0.7292734	2.2186620	-3.4115902
C	-1.4639521	0.8759091	-3.5336466
C	0.3133377	0.5885615	-1.8901251
C	-0.0155184	2.1094755	-2.0470647
H	0.0003964	2.3195937	-4.2230642
H	-1.4058915	3.0772409	-3.4526145
H	-1.6305008	0.5752805	-4.5733182
H	-2.4391076	0.8959431	-3.0227697
H	1.3780360	0.3957041	-2.0943176
H	-0.6978846	2.4112190	-1.2460283
H	0.8846089	2.7268309	-1.9804780
C	3.7573376	-0.4047898	2.5991872
H	3.7313388	-1.4912200	2.3904376
O	3.9654215	0.3976493	1.6822331
C	3.5269826	-0.0166385	4.0328375
H	4.2829488	-0.4852470	4.6770176
H	3.5695016	1.0686365	4.1466225
H	2.5496093	-0.3852791	4.3714504
