31
-0.00572671 (energy)
C	2.0897985	0.6882309	-1.5627259
O	1.5288606	1.4413157	-2.3485781
O	3.3761775	0.2436300	-1.8361653
H	3.7395924	-0.3333822	-1.1340414
N	0.8291838	1.2105040	0.5313222
C	0.8819428	3.4445182	1.4514732
H	-0.1844207	3.5963653	1.3428969
H	1.4444151	4.2519253	1.9025525
C	1.5138312	2.3226240	1.0403244
C	3.0150117	2.1728774	1.1728784
H	3.5133532	2.0610019	0.2018267
H	3.4360090	3.0589533	1.6521485
H	3.2767923	1.3003006	1.7865885
C	-0.8819174	-0.3842338	0.3240423
C	-0.6372585	1.1146351	0.5502497
C	1.4454005	0.1512951	-0.2725491
C	0.2501905	-0.7858317	-0.6456735
H	-0.7886354	-0.9246519	1.2729058
H	-1.8716054	-0.5940536	-0.0920662
H	-1.0141365	1.4659461	1.5164674
H	-1.0977886	1.7275110	-0.2400793
H	2.2001258	-0.3931913	0.3160044
H	-0.0545745	-0.5815135	-1.6770340
H	0.5260703	-1.8414913	-0.5731228
C	3.0343344	-2.5001959	3.1899442
H	3.2432596	-1.5620311	3.7383781
O	3.0246949	-2.5064540	1.9538697
C	2.7761185	-3.7066300	4.0483843
H	1.9181654	-3.5233523	4.7089694
H	2.5803622	-4.5831051	3.4270569
H	3.6403262	-3.9000020	4.6976651
