31
-0.00567919 (energy)
C	0.9907833	1.7924367	-1.7574273
O	-0.0033554	1.9881189	-2.4449942
O	2.2271280	2.2520828	-2.1903098
H	2.9491519	2.0641360	-1.5567886
N	-0.0717787	1.4819888	0.4834521
C	-1.3428373	3.2793149	1.4806030
H	-2.2679609	2.7173319	1.4978942
H	-1.3727161	4.2776252	1.8980210
C	-0.1944907	2.7955293	0.9569384
C	1.0650687	3.6353443	0.9150060
H	1.4092525	3.8254641	-0.1092957
H	0.8801612	4.6060444	1.3793545
H	1.8864664	3.1510227	1.4602562
C	-0.3961902	-0.8423596	0.4048222
C	-1.1323388	0.4803394	0.6620931
C	0.9810463	1.0210324	-0.4259073
C	0.6170365	-0.4749822	-0.7004847
H	0.1232758	-1.1631439	1.3149584
H	-1.0679601	-1.6477135	0.0937225
H	-1.5355837	0.5520227	1.6776167
H	-1.9613051	0.6310073	-0.0467361
H	1.9695651	1.1013956	0.0524684
H	0.1391158	-0.5512105	-1.6823773
H	1.5047268	-1.1135709	-0.7014748
C	5.4791388	-0.1307742	-0.3879756
H	5.2780751	-0.3803440	-1.4471598
O	4.5399820	0.0535689	0.3943379
C	6.9310095	-0.0416128	-0.0095581
H	7.4341309	0.7203465	-0.6197497
H	7.0356827	0.2075385	1.0485269
H	7.4341971	-0.9956223	-0.2156681
