31
-0.00523867 (energy)
C	1.6391433	-2.1011393	0.4259749
O	0.8117044	-2.9711615	0.6663031
O	2.9814566	-2.3377296	0.6894709
H	3.5590065	-1.5880848	0.4395503
N	0.4030069	-0.7739326	-1.2937475
C	-0.2452368	-1.8028926	-3.3821207
H	-1.3048850	-1.6643560	-3.2091153
H	0.0381502	-2.2606200	-4.3212327
C	0.7020064	-1.4488922	-2.4852445
C	2.1709654	-1.7025267	-2.7523894
H	2.6192638	-2.3855604	-2.0200674
H	2.2965862	-2.1567020	-3.7372819
H	2.7473126	-0.7675941	-2.7355293
C	-0.6800669	0.7411512	0.1364599
C	-0.9415830	-0.2590716	-0.9987931
C	1.2910854	-0.7089613	-0.1297240
C	0.4614418	0.0782823	0.9369975
H	-0.3540305	1.7010217	-0.2800063
H	-1.5641101	0.9205387	0.7552817
H	-1.3566777	0.2138184	-1.8949542
H	-1.6277098	-1.0614767	-0.6862217
H	2.2186462	-0.1704369	-0.3789093
H	0.0449835	-0.6310468	1.6593179
H	1.0805646	0.7969291	1.4810787
C	3.3932310	-1.9672609	4.0983516
H	2.5606088	-2.3090539	3.4545344
O	4.1528973	-1.0741110	3.7069405
C	3.5071265	-2.6580820	5.4283411
H	3.6371250	-3.7387753	5.2825697
H	4.3515571	-2.2598946	5.9948749
H	2.5811829	-2.5250371	6.0034419
