31
-0.00469531 (energy)
C	0.4426713	0.0244545	2.4597561
O	-0.6291583	-0.3941523	2.8784459
O	1.5824413	-0.1008768	3.2423328
H	2.3873772	0.2439047	2.8050738
N	0.0000000	0.0000000	0.0000000
C	-0.4917624	-2.0834666	-1.1214356
H	-1.4801289	-1.7703494	-1.4329912
H	-0.1722263	-3.0686018	-1.4363313
C	0.3217076	-1.3149443	-0.3634033
C	1.6796259	-1.8130507	0.0854679
H	1.7612170	-1.8838031	1.1773191
H	1.8611828	-2.8113406	-0.3176737
H	2.4839557	-1.1542181	-0.2688663
C	-0.8641097	2.1714920	-0.2279424
C	-1.1721129	0.7006757	-0.5433294
C	0.6229540	0.7330010	1.1056642
C	-0.1399234	2.0979920	1.1334723
H	-0.2023412	2.5869690	-0.9964062
H	-1.7636525	2.7921677	-0.1806439
H	-1.2503985	0.5034997	-1.6175855
H	-2.1062683	0.3673677	-0.0652244
H	1.6957592	0.8885969	0.9124027
H	-0.8750234	2.0791423	1.9444007
H	0.5392063	2.9373810	1.3066756
C	5.1958806	2.3651198	-0.1549905
H	6.0362250	1.6477785	-0.0931377
O	4.0313695	1.9530057	-0.2006856
C	5.5856671	3.8165523	-0.1770861
H	6.2430547	4.0179638	-1.0334283
H	4.6981280	4.4498394	-0.2387177
H	6.1565133	4.0680054	0.7266391
