31
-0.00468739 (energy)
C	0.0233538	-0.4740735	0.0616212
O	1.1569260	-0.0141028	0.1144666
O	-1.0540753	0.3758044	-0.1482931
H	-1.9103846	-0.0957537	-0.1968617
N	0.5315236	-2.8396586	-0.5650576
C	1.6466113	-3.3266162	-2.6530549
H	2.5094744	-3.7733837	-2.1757252
H	1.6394267	-3.3192291	-3.7354817
C	0.6202939	-2.7815969	-1.9626931
C	-0.5459852	-2.1279731	-2.6741045
H	-0.6378623	-1.0606555	-2.4370522
H	-0.4146554	-2.2089601	-3.7549664
H	-1.4962257	-2.6126487	-2.4120128
C	0.7292736	-3.7450270	1.5925392
C	1.4639523	-3.6320625	0.2489909
C	-0.3133376	-1.9636125	0.2514032
C	0.0155185	-2.3822717	1.7219588
H	-0.0003961	-4.5616996	1.5510266
H	1.4058917	-3.9345186	2.4309506
H	1.6305011	-4.6037355	-0.2276075
H	2.4391077	-3.1324258	0.3574333
H	-1.3780359	-2.1312135	0.0260181
H	0.6978846	-1.6458021	2.1582167
H	-0.8846088	-2.4238992	2.3414979
C	3.6177983	0.8806548	-3.5210943
H	3.0118126	-0.0295473	-3.6910839
O	3.9709541	1.5778456	-4.4788093
C	3.9541183	1.1742281	-2.0859003
H	4.5086707	0.3333150	-1.6484262
H	4.5509745	2.0857424	-2.0118661
H	3.0336379	1.2869560	-1.4978342
