31
-0.00454905 (energy)
C	-0.2753309	0.3438193	0.1872684
O	0.8901060	0.5632956	0.4921267
O	-0.5861284	-0.7669386	-0.5852805
H	-1.5460272	-0.8618355	-0.7513535
N	-1.4534674	1.5963990	2.0011026
C	-1.1405755	0.9613752	4.3117572
H	-0.7091188	1.9132539	4.5941568
H	-1.2622223	0.2298051	5.1002755
C	-1.5047135	0.6623174	3.0448946
C	-2.0637838	-0.6993291	2.6886688
H	-1.4320704	-1.2382698	1.9715335
H	-2.1350905	-1.3180113	3.5854500
H	-3.0692662	-0.6171290	2.2541488
C	-1.6342719	3.6807923	0.9349717
C	-1.1499316	3.0158366	2.2314609
C	-1.4549795	1.2521058	0.5765622
C	-1.3039400	2.6303465	-0.1470367
H	-2.7148368	3.8562015	0.9869944
H	-1.1423222	4.6382647	0.7403310
H	-1.6906359	3.3662941	3.1168148
H	-0.0745338	3.1825364	2.3989587
H	-2.4018381	0.7650059	0.2960921
H	-0.2663209	2.7489992	-0.4750615
H	-1.9506763	2.6985696	-1.0261659
C	3.2056549	-2.5185529	-2.3717524
H	3.1098275	-3.4711803	-1.8168641
O	3.0875729	-2.5034568	-3.6021348
C	3.4795294	-1.3046115	-1.5288900
H	4.4102278	-1.4406832	-0.9620287
H	3.5584009	-0.4138616	-2.1557238
H	2.6769114	-1.1676046	-0.7921087
