11
-0.00530751 (energy)
C	0.0601721	-0.0309944	-0.0496643
H	-0.7164586	0.3690456	0.5913449
C	-0.1655944	-0.8743951	-1.0574398
H	-1.1767732	-1.2018957	-1.2784255
H	0.6319925	-1.2585963	-1.6826016
O	1.2923788	0.4363377	0.3045393
H	1.9555735	0.0527851	-0.2950032
C	4.2926681	0.7837106	1.1192794
H	4.1368315	0.5192990	2.1773592
H	4.9176161	1.6729566	0.9391756
O	3.8038717	0.1326539	0.2044340
