11
-0.00068449 (energy)
C	-0.0785984	-0.0167184	0.0243036
H	0.9358580	0.1990634	-0.2893787
C	-0.6718372	0.5530805	1.0737336
H	-0.1361135	1.2822747	1.6736084
H	-1.6890160	0.3174005	1.3642248
O	-0.6682671	-0.9413607	-0.7878050
H	-1.5733459	-1.1034828	-0.4700948
C	3.9094987	0.1813257	-0.0926122
H	4.8352118	0.7520588	-0.2688227
H	4.0459019	-0.8233469	0.3384136
O	2.8027864	0.6334692	-0.3581172
