11
-8.6292e-05 (energy)
C	-0.0809256	-0.0199961	-0.0099538
H	0.9635677	0.2380906	0.1185183
C	-1.0651050	0.4503973	0.7568756
H	-0.8435782	1.1359283	1.5690006
H	-2.1020392	0.1743710	0.6046926
O	-0.2592977	-0.8834878	-1.0514712
H	-1.2074923	-1.0866167	-1.1292950
C	2.9862989	-1.0626820	0.5540558
H	2.1485245	-1.5508719	1.0770625
H	3.9436716	-1.6072585	0.5791503
O	2.8616950	0.0134395	-0.0170619
