11
-0.00306469 (energy)
C	0.0589763	0.0581280	0.0138137
H	-0.7022205	-0.6921199	-0.1644776
C	-0.1623036	1.3719984	-0.0380153
H	-1.1533873	1.7494102	-0.2701513
H	0.6194333	2.0999715	0.1450838
O	1.2666954	-0.5107194	0.2966919
H	1.9167126	0.1968780	0.4489241
C	3.7140509	-1.1912219	-0.8609937
H	3.5684880	-2.2136477	-0.4773425
H	3.8751562	-1.1103802	-1.9478541
O	3.6978564	-0.2100991	-0.1282764
