11
0.00156416 (energy)
C	-0.0766607	0.0253557	0.0229806
H	0.9127856	-0.3019063	-0.2736263
C	-1.0089717	0.4494699	-0.8307347
H	-0.7991198	0.4823820	-1.8953721
H	-1.9912565	0.7711540	-0.5048228
O	-0.2456323	-0.0516753	1.3749081
H	-1.1438511	0.2504887	1.5946601
C	3.8963765	0.5090979	0.0180576
H	4.1200663	1.4281462	-0.5467825
H	4.7387928	0.0847455	0.5872815
O	2.7855191	-0.0063766	0.0135019
