11
0.00179009 (energy)
C	0.0267161	-0.0777563	-0.0169734
H	-0.3181037	0.9258307	0.2020988
C	0.1868119	-0.5587009	-1.2502487
H	-0.0320129	0.0649308	-2.1115112
H	0.5337076	-1.5679233	-1.4392359
O	0.2748609	-0.7827577	1.1247754
H	0.5806725	-1.6735221	0.8810358
C	3.2128773	0.9219190	0.6700310
H	4.1716966	1.4444842	0.5240083
H	2.5715994	1.3216007	1.4717623
O	2.8819900	-0.0390443	-0.0131980
