11
0.0022205 (energy)
C	0.2967205	0.0383636	1.3514644
H	0.3724422	-0.9401968	1.8105570
C	0.4695065	1.1857154	2.0084539
H	0.7013791	1.1773330	3.0689909
H	0.3875538	2.1509412	1.5224440
O	0.0034433	-0.0532394	0.0218816
H	-0.0546479	0.8449470	-0.3472763
C	3.8619883	-0.2648947	-0.2085787
H	3.7520494	-0.2864422	-1.3045625
H	4.8366953	0.0885309	0.1639699
O	2.9609252	-0.6106998	0.5452401
