11
0.00243713 (energy)
C	0.4288310	-1.1230655	-0.6861477
H	0.4643424	-0.9917741	-1.7611275
C	0.7626940	-2.2527256	-0.0613997
H	1.0949353	-3.1141271	-0.6325187
H	0.7172419	-2.3551484	1.0165736
O	0.0009605	0.0096703	-0.0568388
H	-0.0152446	-0.1534739	0.9020732
C	4.1865638	-0.0506717	-0.1485042
H	4.7005749	0.5022608	-0.9508691
H	4.8386678	-0.6433712	0.5127246
O	2.9714953	-0.0092435	-0.0014284
