11
-0.0025856 (energy)
C	0.0601721	-0.0128236	0.0571206
H	-0.7164586	0.1526879	-0.6801249
C	-0.1655944	-0.1203816	1.3668409
H	-1.1767732	-0.0424970	1.7541719
H	0.6319925	-0.2860354	2.0816812
O	1.2923788	-0.0966634	-0.5232504
H	1.9555735	-0.2447837	0.1728991
C	3.9361316	1.2981070	0.5158504
H	3.0983572	2.0092774	0.5939664
H	4.8935043	1.6441189	0.9371212
O	3.8115277	0.1965389	-0.0044961
