11
0.00267435 (energy)
C	-0.0311300	-0.0434169	0.0647594
H	0.3706590	0.5169576	-0.7710792
C	-0.9792131	0.4146061	0.8828424
H	-1.3974245	1.4051019	0.7325391
H	-1.3622863	-0.1690787	1.7117873
O	0.5542199	-1.2714065	0.1724635
H	0.1646040	-1.7370291	0.9325858
C	3.7738226	-0.3441926	-0.7175497
H	4.5438775	-1.0712761	-0.4140758
H	3.8777055	0.0596233	-1.7373031
O	2.8631887	-0.0073458	0.0287873
