11
0.00278655 (energy)
C	-1.3022497	0.1839487	-0.4316008
H	-1.9622994	-0.6420726	-0.1947395
C	-1.6875406	1.2847366	-1.0779161
H	-2.7179060	1.3946005	-1.4017229
H	-1.0043119	2.0958290	-1.3013223
O	-0.0329087	-0.0452825	0.0138421
H	0.5222848	0.7186655	-0.2196845
C	2.2539248	-0.9628905	0.2656289
H	2.4592840	-1.9588286	-0.1582415
H	1.3966144	-0.9080102	0.9553846
O	2.9332377	0.0176829	-0.0114067
