11
0.00360388 (energy)
C	0.0434067	-0.0628600	0.0348189
H	-0.5168363	0.7484637	-0.4145825
C	0.5712990	-0.0165578	1.2583761
H	0.4524770	0.8722320	1.8703465
H	1.1274904	-0.8445115	1.6823177
O	0.1390807	-1.1324470	-0.8072163
H	0.6476874	-1.8335404	-0.3642961
C	3.5235400	0.2518410	0.1376563
H	4.4387592	-0.3565206	0.2151248
H	2.9156354	0.0821407	-0.7653441
O	3.2033092	1.0625688	0.9978374
