11
-0.00227907 (energy)
C	0.0457201	-0.0151477	0.0687612
H	-0.5443811	0.1803605	-0.8187281
C	-0.4751909	-0.2792083	1.2674397
H	-1.5523443	-0.3083225	1.3996016
H	0.1405295	-0.4710826	2.1384480
O	1.3831664	0.0431487	-0.1958742
H	1.8718104	-0.1378059	0.6256327
C	3.9537001	0.6877297	-1.4120544
H	2.8749686	0.7212406	-1.1908152
H	4.2485918	1.0808686	-2.3980750
O	4.7704588	0.2431742	-0.6151764
