11
-0.00134247 (energy)
C	-0.0833886	-0.0021563	-0.0094639
H	0.9928943	0.0256748	0.1126854
C	-0.8394667	-1.0619728	0.2787052
H	-0.3830801	-1.9697526	0.6610933
H	-1.9151227	-1.0609169	0.1462445
O	-0.5635206	1.1799900	-0.4934022
H	-1.5292993	1.1095596	-0.5866873
C	3.6833137	0.9219896	-0.1676746
H	4.6689373	0.7864053	-0.6408495
H	3.4442293	1.9510059	0.1449272
O	2.9054222	-0.0089390	-0.0003557
