11
-0.00116963 (energy)
C	-0.0152218	-0.0814413	-0.0135461
H	0.1812430	0.9697074	0.1612914
C	-0.5840654	-0.5597155	-1.1206040
H	-0.8816038	0.1159803	-1.9165186
H	-0.7684612	-1.6174720	-1.2680216
O	0.3918668	-0.8490942	1.0386805
H	0.1967336	-1.7809532	0.8387982
C	3.0114849	0.2835071	1.2140684
H	3.2648500	-0.4486006	1.9973663
H	2.6632421	1.2642292	1.5755474
O	3.1103426	0.0244717	0.0212286
