11
-0.000868851 (energy)
C	-0.0813223	-0.0125913	-0.0166139
H	0.9682908	0.1499225	0.1978194
C	-0.6951203	-1.1893589	0.1113565
H	-0.1408306	-2.0597746	0.4485707
H	-1.7475505	-1.3222870	-0.1106875
O	-0.6914264	1.1351241	-0.4322045
H	-1.6278735	0.9428649	-0.6124659
C	3.8703558	0.4020591	-0.5723363
H	4.6482488	-0.2792986	-0.9522909
H	4.0523027	1.4745928	-0.7464701
O	2.8702142	-0.0055235	0.0050129
