11
0.00312157 (energy)
C	0.0180592	0.0567473	-0.0591734
H	-0.2150277	-0.6756807	0.7045673
C	0.1818002	1.3580995	0.1807804
H	0.0829622	1.7430676	1.1910301
H	0.4147484	2.0682637	-0.6040665
O	0.1220405	-0.5200496	-1.2915232
H	0.3311790	0.1715602	-1.9429278
C	3.8043899	0.1817054	0.7454673
H	4.3399343	-0.6565675	1.2189884
H	4.1616821	1.1877015	1.0176251
O	2.8740710	0.0069571	-0.0315196
