11
0.00316517 (energy)
C	-0.4841164	-0.6656102	-1.1129084
H	-0.1218463	-1.6825308	-1.2062518
C	-1.3190163	-0.0890240	-1.9780079
H	-1.6784735	-0.6420439	-2.8402917
H	-1.6649642	0.9311297	-1.8588903
O	0.0207710	-0.0537321	-0.0025540
H	-0.3296500	0.8527665	0.0405339
C	2.8143029	-0.0002853	-0.0790684
H	1.8453713	0.5202621	-0.1417831
H	2.8179887	-0.9264022	0.5176307
O	3.8200788	0.4222962	-0.6354661
