11
-0.000337167 (energy)
C	0.4905480	-0.6896706	-1.0953026
H	-0.2814787	-1.0947835	-1.7386830
C	1.7974763	-0.8304887	-1.3189435
H	2.1459917	-1.3783258	-2.1889925
H	2.5478330	-0.4138074	-0.6571850
O	-0.0430431	-0.0204448	-0.0324714
H	0.6831254	0.3244735	0.5153440
C	5.1605119	0.8125027	0.3528267
H	5.8222484	0.8880635	-0.5247419
H	5.5556898	1.2481588	1.2843813
O	4.0592237	0.2798296	0.2965898
