11
0.00381309 (energy)
C	0.4305270	-0.0836066	-1.3446239
H	0.3388852	-0.9742522	-1.9548963
C	0.0251321	-0.0032735	-0.0769063
H	-0.4290002	-0.8630133	0.4059861
H	0.1297560	0.9019899	0.5097237
O	1.0108600	0.9399350	-2.0358325
H	1.0725519	1.7153165	-1.4515649
C	3.4376326	-0.2648844	0.3316688
H	3.7347960	0.4400868	1.1244114
H	3.9578293	-0.1427480	-0.6317802
O	2.5859626	-1.1267218	0.5095268
