11
0.00397452 (energy)
C	-0.0729906	-0.0382659	0.0159995
H	0.8690860	0.4556251	-0.1905036
C	-0.9606671	0.3936200	0.9123317
H	-0.7608619	1.2915337	1.4888755
H	-1.8959247	-0.1216013	1.0978660
O	-0.2338728	-1.1529512	-0.7545759
H	-1.0890872	-1.5621153	-0.5364381
C	3.8505252	0.3933412	0.1320961
H	4.5474264	0.4892960	-0.7157557
H	4.2457100	0.7118511	1.1099183
O	2.7125886	-0.0385188	-0.0033148
