11
0.00409838 (energy)
C	-1.1048376	-0.6955364	-0.5439854
H	-1.0161639	-1.5461816	-1.2092822
C	-0.0642356	-0.0388350	-0.0303734
H	0.9483103	-0.3472706	-0.2716036
H	-0.1834678	0.8096719	0.6332549
O	-2.4108753	-0.3839638	-0.3003029
H	-2.4422577	0.3819181	0.2987222
C	3.3016686	-0.0350327	-1.1124034
H	4.2697199	0.4376076	-1.3430964
H	2.7997991	-0.5277438	-1.9604121
O	2.8159041	-0.0141299	0.0115782
