11
0.00136963 (energy)
C	-0.0832541	-0.0067657	-0.0084184
H	0.9912918	0.0805581	0.1002367
C	-0.9650003	0.6198136	0.7712151
H	-0.6215180	1.2649581	1.5739494
H	-2.0353987	0.5134454	0.6388686
O	-0.4169019	-0.8356795	-1.0398126
H	-1.3866678	-0.8839951	-1.0999027
C	3.0382571	-1.0240118	0.6297819
H	2.2378309	-1.7776844	0.7006831
H	3.9652740	-1.2632090	1.1749244
O	2.9063682	0.0105430	-0.0121219
