11
0.00166236 (energy)
C	-0.0683555	-0.0070868	-0.0482201
H	0.8138978	0.0843808	0.5741487
C	-0.8996633	-1.0490703	-0.0149899
H	-0.7125460	-1.8745839	0.6647808
H	-1.7755302	-1.1133498	-0.6500552
O	-0.2190216	1.0748587	-0.8660750
H	-1.0199264	0.9500556	-1.4040033
C	3.1394060	0.7726450	-0.7720055
H	3.4701449	1.7723634	-0.4481131
H	3.2864081	0.5468821	-1.8402646
O	2.6416096	-0.0338138	0.0035986
