29
0.0039504 (energy)
C	1.1349261	1.9199817	-1.3976648
C	-0.1101102	1.7171212	-0.9486548
H	1.3817265	2.8076998	-1.9699708
H	1.9322574	1.2068078	-1.2045084
H	-0.9050453	2.4270947	-1.1407942
C	-0.4469641	0.5070493	-0.1686667
O	0.3353297	-0.3804080	0.1265403
O	-1.7648067	0.5696734	0.1453193
C	-2.2689721	-0.5319527	0.9140226
C	-2.7003074	-1.6587618	-0.0058656
H	-3.1344863	-0.1620676	1.4734922
H	-1.5328266	-0.8749621	1.6502454
H	-3.4359372	-1.3007581	-0.7336069
H	-3.1408222	-2.4797799	0.5667772
H	-1.8507901	-2.0471318	-0.5764936
C	6.1217288	0.8369876	-1.4914133
H	6.9226318	1.4805190	-1.8430328
H	5.9371325	-0.0681234	-2.0582149
H	5.6667766	2.1031494	0.1051519
C	5.4154805	1.1746081	-0.4065453
C	4.3260037	0.4327726	0.1861060
C	3.8178548	-0.7298296	-0.2365189
H	3.8861423	0.8886474	1.0720223
H	4.1832236	-1.2619308	-1.1037450
O	2.7765845	-1.3314441	0.4218457
C	2.3821136	-2.5588484	-0.1843530
H	1.5525135	-2.9733220	0.3956885
H	3.2055628	-3.2810819	-0.1714718
H	2.0353610	-2.3921162	-1.2099264
