29
0.00419808 (energy)
C	-0.6125264	-2.3701599	0.9669576
C	-1.1063858	-1.1400494	1.1561891
H	-1.0335153	-3.2241867	1.4864716
H	0.2199543	-2.5509541	0.2917147
H	-1.9356529	-0.9590942	1.8288502
C	-0.5326417	0.0243882	0.4483552
O	0.3996084	-0.0182970	-0.3363734
O	-1.2239746	1.1256850	0.8336111
C	-0.8019222	2.3596870	0.2354651
C	0.3255761	2.9747140	1.0431982
H	-1.6672730	3.0305566	0.2416133
H	-0.5130093	2.2170789	-0.8122858
H	0.0210699	3.1119286	2.0859701
H	0.6148034	3.9447889	0.6292586
H	1.2043951	2.3222272	1.0512901
C	2.9895997	-0.8559042	-1.0553194
H	1.9610134	-0.5956957	-1.2866550
H	3.2266732	-1.9120855	-1.0019995
H	3.5738885	1.1442223	-0.9239103
C	3.8966234	0.1060767	-0.8513247
C	5.2958203	-0.0720647	-0.5366365
C	5.9484268	-1.2300943	-0.3898605
H	5.8607276	0.8503698	-0.4095858
H	5.4791893	-2.1982811	-0.4953945
O	7.2857131	-1.2589801	-0.0890965
C	7.7923248	-2.5856178	0.0248444
H	8.8577665	-2.5232731	0.2644688
H	7.6836453	-3.1258990	-0.9218028
H	7.2888007	-3.1258980	0.8337934
