29
0.00475123 (energy)
C	1.8081076	-1.6185123	1.0193226
C	1.5482958	-0.3134609	1.1683739
H	2.6275845	-2.0867603	1.5538219
H	1.2105886	-2.2458282	0.3627333
H	2.1432113	0.3122116	1.8222175
C	0.4314475	0.3252277	0.4397776
O	-0.3236886	-0.2439984	-0.3299382
O	0.4105788	1.6376540	0.7808345
C	-0.6234126	2.4188395	0.1649785
C	-0.1569122	2.9358262	-1.1829998
H	-0.8270784	3.2627926	0.8322110
H	-1.5548833	1.8480121	0.0749328
H	0.7726857	3.5044357	-1.0759658
H	-0.9156012	3.5812515	-1.6345095
H	0.0524691	2.1095262	-1.8696694
C	2.8295733	-6.1706777	-1.6530923
H	2.4477781	-7.1710411	-1.8339784
H	2.1963118	-5.3439188	-1.9531181
H	4.6015710	-6.8878763	-0.8135579
C	4.0288531	-6.0015689	-1.0848994
C	4.6755100	-4.7459869	-0.7785276
C	4.1988569	-3.5170546	-1.0043559
H	5.6565089	-4.8341451	-0.3137515
H	3.2377667	-3.3229549	-1.4596997
O	4.9192560	-2.4016350	-0.6630466
C	4.2395987	-1.1916834	-0.9850538
H	4.8753547	-0.3540908	-0.6838466
H	3.2935225	-1.1197078	-0.4376828
H	4.0639676	-1.1197081	-2.0638546
