29
0.0050285 (energy)
C	0.7125639	-2.1314254	-1.3700847
C	0.6050575	-0.8318440	-1.6740718
H	1.0337204	-2.8517761	-2.1146930
H	0.4830806	-2.5034014	-0.3747783
H	0.8333682	-0.4604963	-2.6654733
C	0.1671021	0.1503658	-0.6593871
O	-0.1253665	-0.1128102	0.4946977
O	0.1493897	1.3728689	-1.2462350
C	-0.2512233	2.4586589	-0.3981567
C	-1.7615731	2.6024019	-0.4093289
H	0.2077175	3.3667249	-0.8027866
H	0.1318557	2.3313988	0.6209826
H	-2.1280832	2.7300218	-1.4331984
H	-2.0735284	3.4642009	0.1873537
H	-2.2445355	1.7060247	-0.0076044
C	7.4740133	-0.5343167	3.2392232
H	8.3008359	-0.3143813	3.9079587
H	6.5992480	-0.9986156	3.6794254
H	8.4795407	0.2325337	1.5778915
C	7.5631871	-0.2335963	1.9387124
C	6.5592067	-0.4597783	0.9241287
C	5.3526649	-1.0115693	1.0922200
H	6.8367872	-0.1382575	-0.0787277
H	4.9833803	-1.3624938	2.0457335
O	4.4902031	-1.1690478	0.0381858
C	3.2598525	-1.7749588	0.4238214
H	2.6313369	-1.8649855	-0.4668728
H	2.7327388	-1.1530430	1.1554140
H	3.4305830	-2.7788920	0.8273148
