29
0.00564406 (energy)
C	-2.2830967	-1.1092311	0.6963689
C	-1.6868493	0.0489070	1.0063412
H	-3.2510486	-1.3652423	1.1135206
H	-1.8196157	-1.8246553	0.0218193
H	-2.1478923	0.7621207	1.6784033
C	-0.3672942	0.3981414	0.4380670
O	0.2755583	-0.2987011	-0.3286548
O	-0.0145399	1.6135982	0.9253527
C	1.2495813	2.1174750	0.4706294
C	2.3675097	1.6080671	1.3609569
H	1.1993151	3.2095717	0.5317351
H	1.4262836	1.8619980	-0.5806068
H	2.1771246	1.8722548	2.4063676
H	3.3285174	2.0336217	1.0586141
H	2.4390660	0.5167347	1.3162293
C	3.1966094	-2.6068740	0.1406743
H	2.2995853	-3.2039736	0.2749658
H	4.1456470	-3.1174678	0.2555107
H	2.1057071	-0.8700622	-0.2499469
C	3.0998641	-1.3050931	-0.1521052
C	4.1890875	-0.3784469	-0.3605140
C	5.4980711	-0.6456927	-0.3004081
H	3.8879387	0.6426864	-0.5901739
H	5.8987101	-1.6253115	-0.0800850
O	6.4337602	0.3319413	-0.5202844
C	7.7685742	-0.1537978	-0.4110380
H	8.4504539	0.6806436	-0.5987093
H	7.9618934	-0.9308550	-1.1584772
H	7.9618929	-0.5360094	0.5971187
