29
0.00655009 (energy)
C	3.6352376	-2.2578916	2.7902885
C	3.0585318	-1.9894708	1.6120532
H	4.3303157	-3.0841404	2.8935715
H	3.4268112	-1.6608468	3.6744603
H	3.2655585	-2.5839068	0.7307544
C	2.1108255	-0.8633885	1.4709252
O	1.7772824	-0.1075932	2.3677160
O	1.6895307	-0.8350594	0.1821559
C	0.7590169	0.2085015	-0.1400125
C	-0.6590029	-0.2456671	0.1513535
H	0.8668764	0.4141242	-1.2100693
H	1.0000464	1.1363147	0.3916425
H	-0.8845187	-1.1717313	-0.3876019
H	-1.3804479	0.5205703	-0.1460369
H	-0.7928061	-0.4567529	1.2170302
C	3.8345449	-5.5965913	-3.2524421
H	3.6969096	-6.6162890	-3.5995552
H	3.6062567	-5.3993664	-2.2115037
H	4.4733428	-4.9358508	-5.1271493
C	4.2668802	-4.6521981	-4.0956032
C	4.4999970	-3.2584211	-3.7930190
C	4.3281653	-2.6491299	-2.6150084
H	4.8536430	-2.6579724	-4.6300037
H	3.9816963	-3.1555533	-1.7249513
O	4.5878658	-1.3116594	-2.4621802
C	4.3428520	-0.8549004	-1.1351742
H	4.5720391	0.2139268	-1.0957495
H	4.9913126	-1.3724128	-0.4199571
H	3.2900316	-0.9911827	-0.8652962
