29
0.00657238 (energy)
C	1.8052089	1.5557552	1.1174526
C	1.7280539	0.9328144	-0.0652855
H	2.6683214	2.1615971	1.3713825
H	1.0112780	1.4748210	1.8555496
H	2.5186690	1.0128426	-0.8011014
C	0.5517609	0.1067052	-0.4117017
O	-0.4139523	-0.0800544	0.3088745
O	0.7499398	-0.3959621	-1.6555943
C	-0.3053909	-1.2264203	-2.1608506
C	-0.1006232	-2.6624216	-1.7159755
H	-0.2615596	-1.1700099	-3.2534771
H	-1.2893442	-0.8495066	-1.8585898
H	0.8850937	-3.0242582	-2.0263974
H	-0.8670836	-3.3142350	-2.1446029
H	-0.1413794	-2.7454560	-0.6253006
C	9.1291488	-2.3707649	1.4079758
H	10.1346515	-2.7611104	1.5337101
H	8.3212509	-2.9543264	1.8337960
H	9.8002077	-0.6968200	0.3559509
C	8.9315343	-1.2210282	0.7531728
C	7.6654234	-0.5711640	0.5018663
C	6.4532102	-0.9948198	0.8753980
H	7.7293225	0.3634891	-0.0535506
H	6.2833252	-1.9077364	1.4289585
O	5.3248829	-0.2781287	0.5706698
C	4.1365156	-0.8961544	1.0558840
H	3.2869217	-0.2674423	0.7741323
H	4.1580340	-0.9761466	2.1481266
H	3.9989653	-1.8837584	0.6025011
