29
0.00672551 (energy)
C	3.3401666	-2.6974256	2.7687396
C	2.9911892	-2.0676285	1.6398251
H	4.1597437	-3.4078397	2.7783940
H	2.8171550	-2.5183073	3.7047093
H	3.5116677	-2.2456415	0.7069181
C	1.8739045	-1.0993228	1.6262276
O	1.1943253	-0.7952115	2.5918360
O	1.7496136	-0.6273928	0.3609008
C	0.7064689	0.3374480	0.1619057
C	-0.6057141	-0.3635866	-0.1358684
H	0.9983626	0.9517206	-0.6962337
H	0.6153624	1.0100145	1.0226865
H	-0.4986433	-1.0298398	-0.9981721
H	-1.3946406	0.3636661	-0.3473922
H	-0.9201118	-0.9843339	0.7090898
C	7.0034795	1.1657196	-1.0136535
H	8.0306299	0.8301019	-1.1210648
H	6.8548003	2.1881606	-0.6864306
H	6.2301317	-0.6813477	-1.6047909
C	5.9924007	0.3313753	-1.2806781
C	4.5796145	0.6211191	-1.1879485
C	4.0156931	1.7760405	-0.8183265
H	3.9213210	-0.2052312	-1.4524146
H	4.5803554	2.6540511	-0.5373270
O	2.6529217	1.9188454	-0.7726233
C	2.2529608	3.2211239	-0.3558409
H	1.1596690	3.2539209	-0.3453447
H	2.6132420	3.9815121	-1.0571703
H	2.6132417	3.4330198	0.6566489
