29
0.00715942 (energy)
C	0.5325130	0.2085134	0.2513956
C	-0.6379895	-0.2401446	-0.2192502
H	1.3615253	0.4079774	-0.4190079
H	0.6882911	0.3858357	1.3125052
H	-0.7939254	-0.4171848	-1.2762471
C	-1.7682151	-0.5123584	0.6943229
O	-1.7466423	-0.3637895	1.9043530
O	-2.8095745	-0.9532007	-0.0543072
C	-4.0056161	-1.2640949	0.6747311
C	-3.9581212	-2.6964117	1.1728837
H	-4.8437865	-1.1436678	-0.0194617
H	-4.1660049	-0.5583968	1.4980508
H	-3.7989957	-3.3883232	0.3392993
H	-4.8904100	-2.9620242	1.6791756
H	-3.1276361	-2.8423128	1.8708340
C	2.6893211	2.0126127	-0.9065333
H	1.9393018	2.7909176	-0.8020010
H	2.7978854	1.5668356	-1.8884001
H	3.2540159	2.1448632	1.0991579
C	3.4276053	1.6448859	0.1467598
C	4.4592136	0.6331652	0.1736031
C	4.8709854	-0.1261602	-0.8473475
H	4.9398961	0.4905911	1.1404353
H	4.4586718	-0.0617395	-1.8446210
O	5.8660732	-1.0553113	-0.6857728
C	6.1581218	-1.7591287	-1.8894979
H	6.9564373	-2.4765760	-1.6787028
H	6.5097777	-1.0715523	-2.6663072
H	5.2803223	-2.3138178	-2.2382466
