29
0.00755191 (energy)
C	-3.5162293	-0.4271936	-0.2573309
C	-2.1892425	-0.5736773	-0.3599276
H	-4.1914725	-1.1394587	-0.7190810
H	-3.9560226	0.4040649	0.2878800
H	-1.7503219	-1.4014871	-0.9030495
C	-1.2684720	0.3971566	0.2691903
O	-1.6091973	1.3771579	0.9096704
O	0.0000000	0.0000000	0.0000000
C	1.0353474	0.8315516	0.5433649
C	1.3523043	1.9658456	-0.4131176
H	1.9201454	0.1990740	0.6700162
H	0.7645971	1.2083936	1.5364782
H	1.6219722	1.5733526	-1.3990962
H	2.1809422	2.5714675	-0.0354600
H	0.4821111	2.6143699	-0.5556216
C	3.2543747	5.7383917	-2.2633384
H	2.9629813	6.6466127	-2.7824133
H	3.2965531	4.8301518	-2.8531579
H	3.4737677	6.7294047	-0.4388035
C	3.5412094	5.7733840	-0.9571170
C	3.9420043	4.6612732	-0.1257999
C	4.1019833	3.3884214	-0.5035910
H	4.1287569	4.9098838	0.9179740
H	3.9417930	3.0402176	-1.5144323
O	4.4885896	2.4247018	0.3916229
C	4.6020543	1.1365589	-0.2062225
H	4.9122116	0.4286299	0.5678006
H	5.3626106	1.1394583	-0.9945127
H	3.6370898	0.8074830	-0.6067103
