29
0.00771312 (energy)
C	0.6002127	-0.1572724	-0.0725103
C	-0.6639275	0.2474200	0.1037031
H	0.8197562	-1.1665557	-0.4036235
H	1.4406762	0.5077237	0.1093278
H	-1.5017913	-0.4145407	-0.0771117
C	-0.9635826	1.6230783	0.5552526
O	-0.1318064	2.4803321	0.8001514
O	-2.3111485	1.7451109	0.6468615
C	-2.7868670	3.0306141	1.0709384
C	-2.8328449	3.0985391	2.5859353
H	-3.7977906	3.1469006	0.6666528
H	-2.1777843	3.8398138	0.6516487
H	-3.4455650	2.2854180	2.9888414
H	-3.2498345	4.0531777	2.9188447
H	-1.8321116	2.9858052	3.0148306
C	3.6102097	-2.8181528	-0.9835606
H	3.7165931	-3.6791622	-1.6366760
H	3.3048015	-3.0138382	0.0377126
H	4.1554066	-1.4792556	-2.4899743
C	3.8523341	-1.5875264	-1.4490145
C	3.7571944	-0.3467243	-0.7142536
C	3.4097314	-0.1932806	0.5680083
H	3.9991497	0.5476360	-1.2867262
H	3.1518051	-1.0160837	1.2200637
O	3.3586626	1.0485516	1.1466900
C	2.9683455	0.9984664	2.5159050
H	2.9517255	2.0216290	2.9023437
H	3.6885995	0.4200408	3.1045592
H	1.9630789	0.5756436	2.6183631
