29
0.0020804 (energy)
C	-0.4388663	-0.1112743	0.4304208
C	0.4824134	0.1988027	-0.4904340
H	-0.5599072	-1.1330843	0.7735555
H	-1.0901730	0.6454421	0.8603553
H	1.1315727	-0.5545438	-0.9193432
C	0.6475610	1.5915313	-0.9585787
O	-0.0060316	2.5458679	-0.5728724
O	1.6407437	1.6035515	-1.8819756
C	1.9434797	2.8877122	-2.4458461
C	1.0438392	3.1624210	-3.6362768
H	2.9876891	2.8549778	-2.7737048
H	1.8672151	3.6817646	-1.6940123
H	1.1324920	2.3618836	-4.3780354
H	1.3061807	4.1128505	-4.1094623
H	-0.0073710	3.2011841	-3.3336520
C	-0.1095444	-5.1956627	-2.8320096
H	-0.7827881	-5.9216898	-3.2779265
H	0.4313907	-5.5095114	-1.9468802
H	-0.5588571	-3.7457481	-4.2655484
C	0.0227708	-3.9799539	-3.3744651
C	0.8705071	-2.9074057	-2.9059586
C	1.6821553	-2.9263702	-1.8432552
H	0.8277233	-1.9940853	-3.4977044
H	1.7959029	-3.7825712	-1.1931103
O	2.4376374	-1.8329932	-1.5065037
C	3.2333193	-2.0542885	-0.3456745
H	3.8021729	-1.1419442	-0.1444129
H	3.9425652	-2.8725726	-0.5107111
H	2.6017711	-2.2648715	0.5241757
