29
0.00337145 (energy)
C	0.8619521	2.4775728	-0.2156973
C	-0.3566956	1.9252326	-0.1637772
H	0.9820034	3.5515500	-0.3086963
H	1.7632784	1.8718687	-0.1667374
H	-1.2551399	2.5279869	-0.2126344
C	-0.5207423	0.4612660	-0.0372215
O	0.3906810	-0.3460596	0.0279250
O	-1.8500128	0.1936338	-0.0121013
C	-2.1980357	-1.1926637	0.1133054
C	-2.2496698	-1.8457094	-1.2552005
H	-3.1887906	-1.2329891	0.5777561
H	-1.5074264	-1.7185747	0.7826828
H	-2.9441538	-1.3101803	-1.9108116
H	-2.5716579	-2.8878442	-1.1756873
H	-1.2689036	-1.8190819	-1.7405005
C	4.7519076	0.2827224	-2.3805306
H	4.9260304	0.2467444	-3.4517921
H	5.5336792	0.7229106	-1.7725559
H	2.8808763	-0.6280578	-2.5504985
C	3.6153880	-0.2020875	-1.8676994
C	3.2334671	-0.2293726	-0.4741763
C	3.9421963	0.2239317	0.5653857
H	2.2588939	-0.6714823	-0.2719542
H	4.9183537	0.6787305	0.4706132
O	3.4605366	0.1365629	1.8460100
C	4.3635589	0.6738710	2.8080164
H	3.9093876	0.5672561	3.7973770
H	4.5397910	1.7390912	2.6233442
H	5.3102344	0.1228567	2.8028527
