%nprocshared=7
%mem=8GB
%chk=system.chk
#p b3lyp/6-31g

Title Card Required

0 1
 O -0.0021291 -0.0551173 -0.0168120
 H 0.0337910 0.8747509 0.2668180
 C -1.2777257 -0.3449914 -0.4054240
 H -1.3700915 -1.3740730 -0.7318282
 C -2.2877909 0.5252743 -0.3877427
 H -3.2772009 0.2191548 -0.7132153
 H -2.1656437 1.5496681 -0.0556583
 O 3.9033244 -0.1894495 -0.2867644
 C 3.6532495 1.0083903 -0.3355607
 H 2.7654807 1.4026748 -0.8553084
 H 4.3010307 1.7636880 0.1373673





