%nprocshared=7
%mem=8GB
%chk=system.chk
#p b3lyp/6-31g

Title Card Required

0 1
 C -0.8099042 -0.3176917 -1.0766141
 H -0.2632346 -0.5262503 -1.9886095
 C -2.1390497 -0.3575769 -0.9781869
 H -2.7427103 -0.6107857 -1.8442429
 H -2.6591702 -0.1439634 -0.0516737
 O 0.0315243 -0.0106112 -0.0471032
 H -0.5003130 0.1684078 0.7475617
 C 2.9976715 0.5945753 0.1888448
 H 2.7735292 0.9087873 -0.8430284
 H 3.2654956 1.4057238 0.8845920
 O 2.9521580 -0.5780245 0.5390978





