%nprocshared=7
%mem=8GB
%chk=system.chk
#p b3lyp/6-31g

Title Card Required

0 1
 H 0.767188 1.191689 -0.473255
 C 0.564391 0.159674 -0.205241
 C -0.628823 -0.259759 0.244988
 N 1.603692 -0.713042 -0.400623
 H 2.473922 -0.357114 -0.783080
 C 1.464379 -2.068351 -0.227014
 C 0.327789 -2.641831 0.215346
 H 2.343885 -2.645074 -0.491698
 N 0.169046 -4.001474 0.375532
 H 0.959523 -4.615085 0.216248
 H -0.624855 -4.346877 0.903077
 C -0.852589 -1.710290 0.572328
 H -1.054918 -1.810231 1.646555
 N -2.013503 -2.128505 -0.174029
 H -1.981978 -3.055486 -0.576104
 C -2.987897 -1.246478 -0.511553
 N -3.019548 0.016385 -0.284827
 H -3.823645 -1.722970 -1.050573
 C -1.851291 0.584320 0.403759
 H -1.675753 1.588067 0.000240
 H -2.088260 0.704167 1.467274
 Cl 3.590986 -0.010283 -0.033928
 H 3.912751 0.356789 1.177220
 H 3.912751 0.356789 1.177220





