40
-0.000178023 (energy)
C	0.4189690	-4.9895487	1.0137088
C	0.5607171	-3.7055371	1.3659861
H	0.9383355	-5.7744804	1.5528086
H	-0.2163534	-5.2842268	0.1823280
H	1.1935934	-3.4111431	2.1940571
C	-0.1469274	-2.6352645	0.6312196
O	-0.8903396	-2.8073860	-0.3197923
O	0.1850110	-1.4508707	1.2023993
C	-0.4209887	-0.2908972	0.6142722
C	0.4204594	0.2088795	-0.5450947
H	-0.4658915	0.4766025	1.3939284
H	-1.4522576	-0.4938013	0.3029782
H	1.4462095	0.4081241	-0.2178890
H	-0.0015216	1.1272187	-0.9629809
H	0.4797637	-0.5415733	-1.3397210
C	8.7622493	1.4923394	0.9927150
H	8.1539283	0.2447807	2.5516739
C	7.8417029	0.7812848	1.6579737
H	8.5222200	2.0869455	0.1176038
H	9.7927712	1.5094000	1.3340477
C	6.4281251	0.6939298	1.3331549
C	5.9405744	0.7630119	0.0800582
H	6.6308482	0.8536870	-0.7532941
O	5.6158535	0.5835698	2.4473820
C	5.3870528	-0.7807532	2.8006203
H	4.6967256	-0.7959168	3.6491679
H	6.3172917	-1.2675141	3.1115534
H	4.9277862	-1.3394153	1.9786150
S	4.2452312	0.7221375	-0.2980212
C	4.3360351	1.0824072	-2.0411824
C	4.3274977	0.0419377	-2.9753274
C	4.3963438	0.3234837	-4.3413819
H	4.2661346	-0.9925917	-2.6466153
C	4.4690755	1.6455322	-4.7786200
H	4.3895078	-0.4887155	-5.0637349
C	4.4011426	2.4069531	-2.4858327
C	4.4700150	2.6873229	-3.8519567
H	4.5199078	1.8643107	-5.8423122
H	4.5203363	3.7184722	-4.1921069
H	4.3968326	3.2274161	-1.7720164
