40
0.000800317 (energy)
C	-4.9192500	1.0783562	0.8584076
C	-3.7623514	0.5110804	1.2226347
H	-5.8532381	0.7859168	1.3259902
H	-4.9591964	1.8443712	0.0881551
H	-3.7217459	-0.2522423	1.9898318
C	-2.4890152	0.9093058	0.5853298
O	-2.3729342	1.7496203	-0.2905171
O	-1.4969348	0.1742019	1.1462368
C	-0.1775104	0.4353431	0.6466448
C	0.0962306	-0.4152112	-0.5795553
H	0.5247445	0.1689157	1.4433821
H	-0.0345508	1.5013760	0.4351597
H	-0.0493163	-1.4762749	-0.3517717
H	1.1204358	-0.2672935	-0.9333459
H	-0.5935279	-0.1664300	-1.3922474
C	6.6167623	3.3826205	1.3182170
H	5.1090449	3.6572269	2.7353229
C	5.4166967	3.1083689	1.8475580
H	6.9784164	2.9090171	0.4116321
H	7.2643585	4.1201246	1.7824167
C	4.4403377	2.1723869	1.3165204
C	4.7639193	1.0491646	0.6483915
H	5.8109816	0.7919032	0.5193449
O	3.1316938	2.5726731	1.5182345
C	2.6094777	2.0693680	2.7480632
H	1.5611359	2.3744535	2.8167435
H	3.1430538	2.4941315	3.6047035
H	2.6485957	0.9758725	2.7862624
S	3.5926816	-0.0339187	-0.0400385
C	4.6960394	-1.1137369	-0.9306813
C	5.1193304	-2.3158722	-0.3553796
C	5.9820290	-3.1635353	-1.0534706
H	4.7801053	-2.6005289	0.6375782
C	6.4206840	-2.8151552	-2.3303780
H	6.3084088	-4.0969193	-0.6020523
C	5.1329476	-0.7731769	-2.2150119
C	5.9955917	-1.6214488	-2.9120953
H	7.0901251	-3.4766951	-2.8745312
H	6.3319994	-1.3520272	-3.9099656
H	4.8031567	0.1527174	-2.6804896
