40
0.000830997 (energy)
C	-0.5893076	3.2383674	-3.9069719
C	-0.5201252	1.9950611	-3.4147514
H	-0.4735720	3.4228053	-4.9695518
H	-0.7623217	4.0963058	-3.2622461
H	-0.3476459	1.1398204	-4.0564025
C	-0.6776291	1.7432746	-1.9663309
O	-0.8748525	2.5991147	-1.1205463
O	-0.5592875	0.4077545	-1.7623713
C	-0.6918486	-0.0224966	-0.4000280
C	0.6501053	0.0474743	0.3043916
H	-1.0406478	-1.0601200	-0.4247812
H	-1.4538623	0.5603622	0.1302554
H	1.3992296	-0.5402930	-0.2362262
H	0.5720350	-0.3341960	1.3262902
H	1.0202756	1.0768412	0.3431879
C	8.3298270	1.8251690	0.7448108
H	7.0594611	3.4758935	0.8793059
C	7.1188205	2.3987342	0.7370889
H	8.4760460	0.7646126	0.5692258
H	9.2191537	2.4258851	0.9091662
C	5.8536628	1.7246063	0.4998803
C	5.6055988	0.4490255	0.8521407
H	6.3710520	-0.1146005	1.3771006
O	4.9342173	2.5070576	-0.1752910
C	4.1109063	3.2491514	0.7246869
H	3.3751269	3.7985900	0.1300774
H	4.7026841	3.9773014	1.2890950
H	3.5695211	2.5916158	1.4126337
S	4.1135851	-0.3726769	0.5093528
C	4.5703832	-2.0154203	1.0283712
C	4.2463412	-2.4621952	2.3131535
C	4.6019096	-3.7499557	2.7197946
H	3.7149856	-1.8125136	3.0042709
C	5.2780387	-4.5970352	1.8425346
H	4.3479251	-4.0927201	3.7195508
C	5.2416614	-2.8722145	0.1499271
C	5.5967691	-4.1595989	0.5575856
H	5.5522228	-5.6004220	2.1586470
H	6.1182546	-4.8214148	-0.1291136
H	5.4901937	-2.5433078	-0.8564346
