40
0.000930697 (energy)
C	-1.0218021	4.3820001	2.4192421
C	-0.5430875	3.1315478	2.4103508
H	-1.2626369	4.8784088	3.3530863
H	-1.1832641	4.9355610	1.4977411
H	-0.3820830	2.5793407	3.3279818
C	-0.2148798	2.4544655	1.1375723
O	-0.3422344	2.9425343	0.0274909
O	0.2411742	1.2122272	1.4343497
C	0.6156928	0.4068951	0.3074763
C	-0.5934299	-0.3341197	-0.2318403
H	1.3603273	-0.3132095	0.6623071
H	1.0968542	1.0095880	-0.4715196
H	-1.0614256	-0.9319428	0.5571546
H	-0.3075489	-0.9962531	-1.0539687
H	-1.3532876	0.3652934	-0.5945591
C	2.2144147	-0.7232596	-5.1668733
H	1.9593002	1.2015557	-4.4008365
C	2.3538872	0.2054192	-4.2110091
H	2.5436291	-1.7489999	-5.0385578
H	1.7366971	-0.4719607	-6.1088974
C	2.9421936	0.0012009	-2.8981760
C	3.9365322	-0.8717261	-2.6491404
H	4.3613785	-1.4401967	-3.4710423
O	2.3445871	0.7579666	-1.9063905
C	2.9876101	2.0228582	-1.7480389
H	2.5037795	2.5428475	-0.9159731
H	2.8709705	2.6381862	-2.6462185
H	4.0494047	1.9089410	-1.5065084
S	4.5932137	-1.1585438	-1.0663238
C	5.6519868	-2.5410330	-1.4462890
C	7.0090660	-2.3346294	-1.7127666
C	7.8397593	-3.4175396	-2.0083456
H	7.4280904	-1.3316288	-1.6909379
C	7.3182952	-4.7104828	-2.0338922
H	8.8940163	-3.2520694	-2.2149121
C	5.1360600	-3.8409654	-1.4655271
C	5.9675417	-4.9230129	-1.7612581
H	7.9659765	-5.5534824	-2.2613779
H	5.5614756	-5.9311951	-1.7747556
H	4.0852678	-4.0187423	-1.2488641
