40
-0.000881573 (energy)
C	0.5210082	-0.3437607	0.0250328
C	-0.6309308	0.3339509	-0.0563369
H	1.4192610	0.1304283	0.4055256
H	0.5923552	-1.3830998	-0.2853663
H	-0.7027864	1.3694763	0.2525736
C	-1.8555368	-0.3120369	-0.5751489
O	-1.9330061	-1.4660069	-0.9612357
O	-2.8534994	0.6057400	-0.5439388
C	-4.1295369	0.1458786	-1.0118314
C	-4.2286827	0.3169870	-2.5161037
H	-4.8908855	0.7607500	-0.5206925
H	-4.3134032	-0.8927655	-0.7135005
H	-4.0441684	1.3589451	-2.7975341
H	-5.2193688	0.0243843	-2.8752257
H	-3.4771097	-0.2898172	-3.0309378
C	8.2185931	1.6367351	2.1765726
H	7.3729876	0.6031685	3.7807861
C	7.2342331	0.9340696	2.7535213
H	8.1400994	2.0370530	1.1712993
H	9.1334173	1.8472275	2.7220671
C	5.9511748	0.6072502	2.1549474
C	5.7695609	0.3974767	0.8374722
H	6.6263450	0.4353627	0.1713929
O	4.9117056	0.5818004	3.0672646
C	4.7288143	-0.7207101	3.6227119
H	3.8616336	-0.6822761	4.2885459
H	5.5988517	-1.0206318	4.2160431
H	4.5287724	-1.4665387	2.8465388
S	4.2223246	0.0698627	0.1180751
C	4.6901142	0.1373917	-1.6004310
C	4.9957605	-1.0386252	-2.2924144
C	5.3601825	-0.9867764	-3.6394931
H	4.9511777	-2.0011615	-1.7888228
C	5.4157144	0.2396030	-4.3006961
H	5.5969872	-1.9036437	-4.1731466
C	4.7397987	1.3639454	-2.2708581
C	5.1043678	1.4146372	-3.6177676
H	5.6968302	0.2791701	-5.3501232
H	5.1412740	2.3704731	-4.1340223
H	4.4934894	2.2859632	-1.7493921
