40
0.00102101 (energy)
C	3.1278146	-3.7456069	1.5119332
C	2.1883657	-3.2631132	0.6888212
H	3.3165953	-4.8118031	1.5757723
H	3.7268707	-3.0891490	2.1379192
H	1.5910355	-3.9164826	0.0649567
C	1.9305979	-1.8098105	0.6016828
O	2.5172049	-0.9515215	1.2388197
O	0.9357113	-1.6184976	-0.2998813
C	0.5545785	-0.2524757	-0.5175729
C	-0.4935006	0.1669047	0.4961300
H	0.1340033	-0.1946879	-1.5268861
H	1.4249379	0.4134613	-0.4932438
H	-1.3560641	-0.5065073	0.4583703
H	-0.8339366	1.1879435	0.3021534
H	-0.0961839	0.1186702	1.5149235
C	2.6315787	6.0679426	0.8094283
H	3.0409404	5.2296740	2.6766558
C	2.9703339	5.0454920	1.6065562
H	2.5002333	5.9561723	-0.2616673
H	2.4540729	7.0535845	1.2286853
C	3.2057937	3.6743802	1.1870906
C	3.7160278	3.3335253	-0.0113286
H	4.0080847	4.1159985	-0.7053129
O	2.8048009	2.7385411	2.1235074
C	3.8622234	2.4057343	3.0232860
H	3.4959774	1.6251843	3.6966509
H	4.1482599	3.2707364	3.6306692
H	4.7362327	2.0143731	2.4925639
S	3.9362694	1.6909380	-0.5330604
C	4.4049997	1.9929391	-2.2259094
C	5.7559803	2.0380433	-2.5838110
C	6.1240241	2.2723763	-3.9103646
H	6.5293786	1.8901966	-1.8341014
C	5.1435082	2.4575838	-4.8843082
H	7.1755065	2.3066509	-4.1837107
C	3.4256748	2.1715268	-3.2084592
C	3.7947983	2.4058366	-4.5345407
H	5.4305107	2.6372729	-5.9173767
H	3.0296798	2.5438343	-5.2941812
H	2.3707799	2.1275424	-2.9477414
