40
0.00108659 (energy)
C	0.5840890	-0.2203850	0.0227647
C	-0.6396367	0.3202046	-0.0332356
H	0.7140901	-1.2913281	0.1353195
H	1.4797712	0.3921447	-0.0422309
H	-1.5324637	-0.2893525	0.0315870
C	-0.8172452	1.7800360	-0.1864462
O	0.0866709	2.5939267	-0.2714685
O	-2.1489380	2.0355171	-0.2097269
C	-2.5098210	3.4161096	-0.3593780
C	-2.5603804	4.0943556	0.9968555
H	-3.5032037	3.4390118	-0.8193805
H	-1.8272420	3.9353281	-1.0420843
H	-3.2468177	3.5652278	1.6659989
H	-2.8919591	5.1319522	0.8994259
H	-1.5770028	4.0854538	1.4774974
C	3.6220105	-4.6523824	-2.4160451
H	4.8389059	-3.1032385	-1.7260245
C	3.9116491	-3.6517435	-1.5731901
H	2.6991430	-5.2195438	-2.3557653
H	4.3106439	-4.9128074	-3.2140034
C	3.0722828	-3.1782183	-0.4857259
C	2.2454432	-3.9697097	0.2232219
H	2.2161987	-5.0337301	0.0083234
O	3.1637763	-1.8137907	-0.2773205
C	4.1822396	-1.4917656	0.6700637
H	4.1623272	-0.4094979	0.8285395
H	5.1728620	-1.7604460	0.2887003
H	4.0062263	-1.9798936	1.6341551
S	1.1966404	-3.3875392	1.4801600
C	0.2724145	-4.8796286	1.7902022
C	0.6495471	-5.7370974	2.8283712
C	-0.0754236	-6.9052184	3.0733679
H	1.5077695	-5.5013872	3.4528416
C	-1.1822585	-7.2178805	2.2850543
H	0.2216643	-7.5687010	3.8814754
C	-0.8434271	-5.1942957	1.0077337
C	-1.5675502	-6.3625737	1.2535340
H	-1.7479485	-8.1260025	2.4779231
H	-2.4339775	-6.6022816	0.6425126
H	-1.1561250	-4.5314754	0.2042406
