40
0.00134719 (energy)
C	-2.4140336	1.0000884	-0.3164154
C	-1.5498206	0.3953269	-1.1412046
H	-3.3797787	1.3396885	-0.6748791
H	-2.1772010	1.1688780	0.7310024
H	-1.7849756	0.2269270	-2.1848738
C	-0.2331911	-0.0675448	-0.6529808
O	0.1749490	0.0506747	0.4898914
O	0.4211130	-0.6328298	-1.6977568
C	1.7275300	-1.1472152	-1.4022065
C	2.7667340	-0.0509834	-1.5445936
H	1.9298329	-1.9423015	-2.1273597
H	1.7606754	-1.6041552	-0.4063667
H	2.7218179	0.3939083	-2.5440830
H	3.7728175	-0.4465041	-1.3790546
H	2.5865391	0.7566767	-0.8281144
C	4.8681390	-2.7350616	5.0652173
H	5.1849591	-4.1775450	3.5901999
C	4.9796386	-3.1275953	3.7888716
H	4.6242240	-1.7155389	5.3446253
H	5.0006393	-3.4499846	5.8715072
C	4.7977124	-2.2890785	2.6162110
C	5.0961061	-0.9767218	2.5786571
H	5.5324647	-0.5068080	3.4549836
O	4.2349662	-2.9597303	1.5452258
C	5.2316670	-3.5346459	0.6999069
H	4.7230194	-3.9979008	-0.1506736
H	5.7911037	-4.3148867	1.2264189
H	5.9196472	-2.7760538	0.3126822
S	4.8173023	0.0357498	1.1944703
C	5.2105519	1.6167004	1.9173814
C	6.4888028	2.1619924	1.7624371
C	6.7970357	3.4016668	2.3266291
H	7.2513029	1.6270439	1.2016413
C	5.8278109	4.1026148	3.0432564
H	7.7921118	3.8214129	2.2035645
C	4.2399629	2.3278994	2.6304927
C	4.5492631	3.5673136	3.1942579
H	6.0674566	5.0689155	3.4799737
H	3.7912073	4.1158775	3.7473695
H	3.2379387	1.9223469	2.7495995
