40
0.00147999 (energy)
C	0.0978211	-0.1094933	-0.6071984
C	-0.1153292	0.1975956	0.6785469
H	0.2257763	-1.1405730	-0.9186308
H	0.1491352	0.6589623	-1.3743402
H	-0.1664455	-0.5674090	1.4434370
C	-0.2895860	1.6030091	1.1034863
O	-0.2569891	2.5713229	0.3632047
O	-0.4843289	1.6092679	2.4455944
C	-0.6787258	2.9029712	3.0348391
C	0.6599289	3.5270551	3.3819214
H	-1.2630009	2.7536666	3.9487683
H	-1.2674855	3.5555260	2.3797637
H	1.2347375	2.8643831	4.0371970
H	0.5209602	4.4878640	3.8854865
H	1.2633862	3.6877703	2.4829569
C	1.7152882	-2.3534127	-7.7118655
H	3.0619522	-2.8939770	-6.2115002
C	2.2171975	-2.2598985	-6.4729485
H	0.9014899	-1.7273555	-8.0622577
H	2.1353245	-3.0602590	-8.4208876
C	1.7753145	-1.3415748	-5.4372065
C	0.5053508	-0.9143721	-5.3052239
H	-0.2549675	-1.2945296	-5.9809252
O	2.8017980	-0.9013851	-4.6210991
C	2.9706245	-1.7467669	-3.4829727
H	3.7550008	-1.3122564	-2.8562598
H	3.2925758	-2.7495363	-3.7825736
H	2.0545464	-1.8093062	-2.8866410
S	-0.0056105	0.2330040	-4.1047033
C	-1.6808590	0.4909403	-4.6557584
C	-2.7304405	-0.2272070	-4.0744498
C	-4.0435479	-0.0240522	-4.5040890
H	-2.5334632	-0.9472954	-3.2840443
C	-4.3127058	0.9006481	-5.5124355
H	-4.8560949	-0.5847567	-4.0492418
C	-1.9576481	1.4229397	-5.6613129
C	-3.2709628	1.6252247	-6.0901843
H	-5.3354400	1.0604158	-5.8446678
H	-3.4805240	2.3508274	-6.8719055
H	-1.1534301	1.9975868	-6.1148832
