40
0.00153112 (energy)
C	0.5743625	-1.5538414	-2.0453700
C	-0.5675650	-1.2224952	-1.4296680
H	0.5729098	-2.2314894	-2.8922933
H	1.5323011	-1.1573352	-1.7185671
H	-1.5223128	-1.6172094	-1.7545667
C	-0.5659593	-0.2989593	-0.2750231
O	0.4246045	0.2242909	0.2063330
O	-1.8486946	-0.1515615	0.1398046
C	-2.0379865	0.7241596	1.2604958
C	-1.8691764	-0.0425228	2.5588195
H	-3.0591834	1.1134906	1.1933085
H	-1.3616480	1.5854783	1.2126826
H	-2.5519192	-0.8979185	2.5917688
H	-2.0695547	0.6025066	3.4189528
H	-0.8540410	-0.4415937	2.6503069
C	3.2429920	-0.3303194	0.4880749
H	3.5436084	0.6653045	-1.3216689
C	3.9473904	-0.0614601	-0.6196755
H	3.5964945	-1.0108984	1.2554329
H	2.2871880	0.1549766	0.6604144
C	5.2480144	-0.6115850	-0.9618449
C	5.6574486	-1.8447236	-0.6090528
H	4.9768680	-2.4947010	-0.0672824
O	6.0558414	0.2778275	-1.6472846
C	5.8874103	0.1625515	-3.0603830
H	6.5915199	0.8496312	-3.5388865
H	4.8747485	0.4515377	-3.3603215
H	6.1083371	-0.8503830	-3.4123445
S	7.2371062	-2.4743943	-0.9654237
C	7.1531624	-3.9912740	-0.0333937
C	6.7940893	-5.1857112	-0.6655827
C	6.7302747	-6.3750310	0.0634981
H	6.5632479	-5.1985643	-1.7279457
C	7.0296520	-6.3756341	1.4253543
H	6.4505557	-7.3010031	-0.4323256
C	7.4601004	-3.9992718	1.3311941
C	7.3959050	-5.1890083	2.0592403
H	6.9824708	-7.3022745	1.9919234
H	7.6355633	-5.1896403	3.1194605
H	7.7523894	-3.0805533	1.8344191
