40
0.00155954 (energy)
C	0.5955044	0.1757560	-0.0687899
C	-0.6607215	-0.2382222	0.1395278
H	0.8392498	0.8078373	-0.9158728
H	1.4052724	-0.1063091	0.5993259
H	-1.4679929	0.0422462	-0.5257181
C	-0.9933293	-1.1000232	1.2939961
O	-0.1972021	-1.4991222	2.1268302
O	-2.3236818	-1.3593981	1.2481143
C	-2.8279069	-2.1865735	2.3065119
C	-2.6866870	-3.6517829	1.9388684
H	-3.8873241	-1.9385706	2.4292546
H	-2.3328010	-1.9625872	3.2585045
H	-3.1871966	-3.8594119	0.9873928
H	-3.1219182	-4.2896171	2.7133264
H	-1.6344876	-3.9252598	1.8115339
C	6.4901038	-0.3449664	3.8986310
H	5.7738475	-2.2769373	3.5650515
C	5.7641538	-1.2446629	3.2210499
H	6.5005286	0.7096276	3.6442439
H	7.0836325	-0.6526508	4.7541007
C	4.9045614	-0.9687889	2.0824830
C	5.1436333	0.0007574	1.1794028
H	6.0451880	0.5992320	1.2699746
O	3.7775907	-1.7697968	2.0401759
C	4.0061935	-2.9631845	1.2904618
H	3.0648499	-3.5191283	1.2502971
H	4.7537159	-3.5969602	1.7788249
H	4.3147459	-2.7423158	0.2634593
S	4.0797622	0.3685716	-0.1441131
C	4.8774636	1.8445342	-0.7456589
C	5.7856685	1.7701784	-1.8062774
C	6.4093955	2.9264629	-2.2796520
H	6.0123724	0.8137538	-2.2709553
C	6.1241094	4.1612402	-1.6980882
H	7.1147519	2.8636052	-3.1042909
C	4.5891466	3.0868829	-0.1713612
C	5.2134279	4.2423852	-0.6454211
H	6.6078886	5.0614884	-2.0687631
H	4.9856607	5.2053377	-0.1955902
H	3.8762369	3.1624406	0.6464179
