40
0.00159813 (energy)
C	-0.4637840	-1.8724394	-2.9818547
C	-0.5807124	-1.3607071	-1.7500530
H	-1.1505796	-2.6341320	-3.3348764
H	0.3173868	-1.5434183	-3.6624287
H	-1.3586141	-1.6880780	-1.0713785
C	0.3554316	-0.3225477	-1.2684043
O	1.2794331	0.1451940	-1.9119492
O	0.0000000	0.0000000	0.0000000
C	0.8055002	1.0068216	0.6294024
C	2.0127776	0.3721127	1.2939090
H	0.1797731	1.4894624	1.3873334
H	1.1029986	1.7837799	-0.0843344
H	1.6991254	-0.3999419	2.0041760
H	2.6019792	1.1237288	1.8267866
H	2.6559206	-0.1169018	0.5554245
C	9.7272862	-0.6550716	2.7659420
H	8.7010205	0.4387673	4.2175289
C	8.6495135	-0.0046184	3.2251694
H	9.7697630	-1.0885033	1.7723008
H	10.6152304	-0.7479570	3.3837623
C	7.4115819	0.2210072	2.4985616
C	6.9100231	-0.6338037	1.5872623
H	7.4279246	-1.5688446	1.3958141
O	6.8154078	1.4334264	2.7953487
C	5.8932048	1.3167805	3.8790644
H	5.4199814	2.2925921	4.0228209
H	6.4092650	1.0501616	4.8072649
H	5.1069133	0.5859849	3.6636458
S	5.4630202	-0.3298900	0.6747807
C	5.5417873	-1.7119611	-0.4478616
C	4.8353764	-2.8858522	-0.1681478
C	4.8947729	-3.9683487	-1.0483671
H	4.2343790	-2.9649445	0.7344123
C	5.6561999	-3.8797116	-2.2131211
H	4.3439894	-4.8788161	-0.8265683
C	6.2975768	-1.6258203	-1.6216319
C	6.3563174	-2.7088196	-2.5010110
H	5.6999338	-4.7217267	-2.8994061
H	6.9450872	-2.6365198	-3.4118492
H	6.8430082	-0.7153482	-1.8588176
