40
0.0020097 (energy)
C	-0.2953660	-0.5487409	0.0434745
C	0.3007313	0.6497844	0.0105680
H	-0.0665380	-1.3040182	-0.7006236
H	-1.0223350	-0.8012973	0.8111952
H	1.0249897	0.9022077	-0.7540457
C	-0.0110953	1.6796670	1.0245857
O	-0.8019796	1.5463882	1.9429810
O	0.7316680	2.7784906	0.7415533
C	0.5587328	3.8872242	1.6356847
C	-0.6058329	4.7481896	1.1835027
H	1.4835980	4.4724085	1.6022240
H	0.4293488	3.5491416	2.6703583
H	-0.4609876	5.0787105	0.1497227
H	-0.7092276	5.6283161	1.8243853
H	-1.5440728	4.1850125	1.2092887
C	7.9123560	-1.9852998	0.4710876
H	6.9247062	-2.9496673	2.0367673
C	6.8322490	-2.2307488	1.2252076
H	7.9128563	-1.2532104	-0.3295590
H	8.8436526	-2.5099839	0.6612658
C	5.5373989	-1.5828805	1.1028550
C	5.0257466	-1.1427747	-0.0621549
H	5.5825166	-1.3039288	-0.9804210
O	4.8937912	-1.4117136	2.3152648
C	4.0546795	-2.5234848	2.6288901
H	3.5368664	-2.2986014	3.5659662
H	4.6463785	-3.4326407	2.7781810
H	3.2990110	-2.6905258	1.8544327
S	3.5056610	-0.3117094	-0.1943429
C	3.5881808	0.1560525	-1.9122020
C	2.9708022	-0.6345716	-2.8863856
C	3.0330853	-0.2675597	-4.2323187
H	2.4373147	-1.5390135	-2.6045271
C	3.7082185	0.8929739	-4.6086648
H	2.5516924	-0.8854283	-4.9859813
C	4.2572366	1.3233013	-2.2946537
C	4.3189516	1.6892891	-3.6407182
H	3.7540991	1.1797089	-5.6563131
H	4.8400941	2.5974729	-3.9324648
H	4.7322648	1.9547216	-1.5474132
