40
0.00209825 (energy)
C	0.0663661	0.0276609	0.6205466
C	-0.0108767	0.0034975	-0.7159890
H	-0.7196119	-0.4041438	1.2306871
H	0.9128899	0.4774949	1.1330995
H	-0.8539811	-0.4443480	-1.2273706
C	1.0602277	0.5921974	-1.5480309
O	2.0672649	1.1310149	-1.1211083
O	0.7139168	0.4254740	-2.8486039
C	1.6506355	0.9378226	-3.8071051
C	1.3708528	2.4036053	-4.0812327
H	1.5158094	0.3593035	-4.7269277
H	2.6844241	0.7817826	-3.4776779
H	0.3358099	2.5424589	-4.4103697
H	2.0418439	2.7885052	-4.8543218
H	1.5003132	3.0043927	-3.1754613
C	6.0799594	0.3576603	4.9114286
H	6.6473697	-1.1306912	3.5624790
C	6.1553917	-0.1673864	3.6808965
H	5.5703247	1.2927849	5.1183210
H	6.5187435	-0.1633536	5.7568797
C	5.5890140	0.4030172	2.4704436
C	5.4648181	1.7255969	2.2511542
H	5.8362481	2.4237163	2.9953618
O	5.1367396	-0.5498617	1.5754933
C	6.1549345	-0.9294054	0.6493560
H	5.7162002	-1.6383316	-0.0589875
H	6.9841556	-1.4297774	1.1602181
H	6.5271750	-0.0693756	0.0832221
S	4.7288077	2.4018933	0.8299874
C	4.7014153	4.1166890	1.3151431
C	5.7238898	4.9789536	0.9073171
C	5.7019773	6.3231557	1.2851444
H	6.5420462	4.6110715	0.2930281
C	4.6560351	6.8111703	2.0675292
H	6.4991050	6.9895532	0.9657543
C	3.6506333	4.6134995	2.0932250
C	3.6297586	5.9577011	2.4704937
H	4.6380137	7.8583255	2.3591289
H	2.8107302	6.3386322	3.0751318
H	2.8421320	3.9579538	2.4083397
