40
0.00219576 (energy)
C	-0.1598325	-1.6873798	-2.0137171
C	0.5812166	-1.6474794	-0.8992074
H	-0.0545292	-2.5017007	-2.7224348
H	-0.8852472	-0.9107196	-2.2422693
H	1.3042355	-2.4207880	-0.6708669
C	0.4381048	-0.5374926	0.0670090
O	-0.3286832	0.4032477	-0.0502727
O	1.3068768	-0.7589364	1.0845629
C	1.3003048	0.2268761	2.1270591
C	2.2404577	1.3652474	1.7775359
H	1.6471592	-0.2698042	3.0391647
H	0.2856950	0.5913632	2.3253158
H	3.2489869	0.9853362	1.5839859
H	2.2877161	2.0932366	2.5923010
H	1.9138506	1.8793955	0.8680817
C	5.7541652	-1.6504203	-1.1702919
H	5.0290595	0.2766073	-1.5132148
C	5.5500195	-0.3747820	-0.8144202
H	6.2284408	-2.3722713	-0.5137983
H	5.4220585	-2.0081851	-2.1400775
C	5.9123861	0.2278611	0.4571348
C	6.9808641	-0.1448366	1.1866420
H	7.6429699	-0.9148983	0.8021987
O	5.0188802	1.1959729	0.8788850
C	5.3900676	2.4944511	0.4155506
H	4.6775298	3.2141607	0.8292201
H	5.3353335	2.5525359	-0.6765073
H	6.3922854	2.7738871	0.7564271
S	7.3739807	0.5346956	2.7366416
C	8.7100907	-0.5537512	3.1913330
C	10.0355709	-0.1765780	2.9544384
C	11.0830806	-1.0278484	3.3124537
H	10.2611807	0.7810078	2.4916233
C	10.8098492	-2.2564385	3.9126125
H	12.1118100	-0.7303072	3.1261923
C	8.4422734	-1.7838436	3.8008585
C	9.4904226	-2.6342680	4.1583598
H	11.6257975	-2.9176123	4.1936225
H	9.2767142	-3.5890493	4.6318834
H	7.4171858	-2.0860512	4.0022976
