40
0.00298952 (energy)
C	-1.2190591	2.3011710	0.3825710
C	-1.5126042	1.2087618	-0.3339141
H	-1.8869652	3.1557459	0.3921243
H	-0.3087510	2.3661135	0.9731516
H	-2.4192492	1.1433482	-0.9226566
C	-0.6022935	0.0437383	-0.3473525
O	0.4518639	-0.0328142	0.2605973
O	-1.1502127	-0.9013267	-1.1510034
C	-0.3963677	-2.1154749	-1.2783992
C	0.6261029	-1.9829379	-2.3914719
H	-1.1084539	-2.9096568	-1.5256725
H	0.0775481	-2.3924458	-0.3295680
H	0.1372935	-1.7076574	-3.3317970
H	1.1659109	-2.9230026	-2.5361421
H	1.3514124	-1.1945165	-2.1668715
C	6.6455412	1.3190496	1.6361864
H	4.8440520	0.4406256	2.2191252
C	5.5292912	0.6188003	1.3928551
H	7.3576522	1.5737971	0.8583743
H	6.8598092	1.6769375	2.6385736
C	5.1036548	0.1078312	0.1009246
C	5.9526970	-0.2901805	-0.8652242
H	7.0213796	-0.2690449	-0.6737912
O	3.7305237	0.1163293	-0.0661242
C	3.1394040	-1.1113368	0.3603940
H	2.0672538	-1.0580205	0.1495247
H	3.2662123	-1.2548840	1.4384820
H	3.5506686	-1.9681371	-0.1831836
S	5.4404901	-0.8403706	-2.4316655
C	7.0330844	-0.9630585	-3.2223877
C	7.7007864	-2.1906779	-3.2713911
C	8.9476100	-2.2881115	-3.8927205
H	7.2551948	-3.0778404	-2.8281540
C	9.5290423	-1.1604814	-4.4712241
H	9.4628387	-3.2445575	-3.9281965
C	7.6174774	0.1630203	-3.8112901
C	8.8642237	0.0644792	-4.4322241
H	10.4984735	-1.2374362	-4.9571977
H	9.3138147	0.9426892	-4.8884240
H	7.1051855	1.1221249	-3.7916162
