40
0.0032187 (energy)
C	-2.1214129	1.5241066	-0.3233575
C	-1.4153864	0.7379222	-1.1457432
H	-2.9831869	2.0748554	-0.6846184
H	-1.8554957	1.6348094	0.7248298
H	-1.6795925	0.6272177	-2.1901767
C	-0.2404760	-0.0128180	-0.6537058
O	0.1804144	0.0096166	0.4904354
O	0.2708394	-0.7127769	-1.6966977
C	1.4246416	-1.5114121	-1.3973817
C	2.6868677	-0.6810838	-1.5362461
H	1.4424989	-2.3319354	-2.1221979
H	1.3497081	-1.9635240	-0.4016059
H	2.7476043	-0.2380200	-2.5357114
H	3.5757482	-1.2955457	-1.3678067
H	2.6934293	0.1466375	-0.8200327
C	1.2925810	-3.2932973	1.9638694
H	2.6548835	-4.4697076	0.9069870
C	2.4546996	-3.4851969	1.3249420
H	1.0011228	-2.3312295	2.3718739
H	0.5861566	-4.1105367	2.0727685
C	3.4737306	-2.4786478	1.0804526
C	3.7271159	-1.4501972	1.9116052
H	3.1722284	-1.3708712	2.8416499
O	4.1323461	-2.6472963	-0.1242257
C	5.2948871	-3.4635693	0.0196535
H	5.7948633	-3.5088760	-0.9523474
H	5.0249326	-4.4842465	0.3100024
H	5.9982405	-3.0408577	0.7444505
S	4.9027445	-0.2135055	1.5840467
C	4.5382809	0.8878728	2.9371109
C	5.2850528	0.8222962	4.1174956
C	5.0015851	1.6864042	5.1772485
H	6.0915990	0.1003679	4.2193333
C	3.9743692	2.6219164	5.0592491
H	5.5847911	1.6315660	6.0928749
C	3.5142615	1.8335812	2.8213754
C	3.2316355	2.6970518	3.8816520
H	3.7558632	3.2962332	5.8835312
H	2.4348260	3.4302113	3.7863895
H	2.9324026	1.9046498	1.9053507
