40
-0.000539103 (energy)
C	-2.4534625	-1.8998101	4.0583223
C	-2.4079360	-1.5829262	2.7581725
H	-3.4012410	-2.0826635	4.5530632
H	-1.5487935	-1.9832794	4.6552064
H	-3.3087951	-1.4994386	2.1628704
C	-1.1161781	-1.3333915	2.0834726
O	-0.0212786	-1.3877165	2.6172845
O	-1.3766942	-1.0350176	0.7864289
C	-0.2263721	-0.7662624	-0.0279403
C	0.1550399	0.6988702	0.0713307
H	-0.5023192	-1.0054133	-1.0602173
H	0.6132666	-1.4181376	0.2397446
H	-0.6928995	1.3361645	-0.2002942
H	0.9945909	0.9268021	-0.5914250
H	0.4367004	0.9630116	1.0955495
C	7.6032681	0.7418247	2.3748836
H	6.1692608	1.3665626	3.7569600
C	6.3448413	1.0227039	2.7396332
H	7.8657408	0.4335534	1.3683714
H	8.4150934	0.8393287	3.0891715
C	5.1722844	0.9658883	1.8833491
C	5.0280358	0.0965802	0.8653976
H	5.8072833	-0.6365218	0.6796270
O	4.2289143	1.9326492	2.1814982
C	3.2755967	1.4633873	3.1351665
H	2.5320476	2.2523549	3.2817257
H	3.7516485	1.2625341	4.1005641
H	2.7556050	0.5678732	2.7796597
S	3.6522513	0.0746102	-0.1955160
C	4.2325016	-1.1186649	-1.3854970
C	3.8659186	-2.4630236	-1.2689075
C	4.3182961	-3.3981939	-2.2021405
H	3.2260742	-2.7904592	-0.4531543
C	5.1343440	-2.9923933	-3.2574468
H	4.0307365	-4.4421359	-2.1072590
C	5.0447795	-0.7159502	-2.4505793
C	5.4965918	-1.6518624	-3.3830919
H	5.4840308	-3.7203393	-3.9852537
H	6.1275348	-1.3335112	-4.2089651
H	5.3287595	0.3279828	-2.5613537
