40
-0.000472713 (energy)
C	0.3513266	-2.7862792	2.1738906
C	-0.0617184	-1.6605863	1.5779987
H	-0.1553232	-3.1675627	3.0539002
H	1.2013263	-3.3498507	1.7976577
H	-0.9083765	-1.0984767	1.9523044
C	0.6287973	-1.1404170	0.3785247
O	1.5935687	-1.6580462	-0.1581199
O	0.0000000	0.0000000	0.0000000
C	0.5389287	0.6449231	-1.1628833
C	1.6659775	1.5807302	-0.7679537
H	-0.2752205	1.2202028	-1.6158184
H	0.8687764	-0.0875677	-1.9087033
H	1.3204573	2.3064045	-0.0243558
H	2.0444385	2.1216272	-1.6398720
H	2.4941531	1.0282759	-0.3129299
C	7.6126287	1.8960464	-4.4106896
H	6.8963724	3.7077381	-3.6613164
C	6.8866788	2.6251383	-3.5522055
H	7.6230536	0.8113346	-4.3939066
H	8.2061575	2.3839440	-5.1777972
C	6.0270863	2.1061572	-2.5019200
C	6.2661583	0.9620808	-1.8335913
H	7.1677130	0.3980652	-2.0532763
O	4.9001156	2.8783607	-2.2848825
C	5.1287184	3.8781585	-1.2915801
H	4.1873748	4.4117405	-1.1304061
H	5.8762408	4.6036479	-1.6289750
H	5.4372708	3.4373223	-0.3380704
S	5.2022871	0.3128176	-0.6230382
C	5.9999885	-1.2591691	-0.3600159
C	6.9081934	-1.4193518	0.6910701
C	7.5319205	-2.6513272	0.8991902
H	7.1348974	-0.5881980	1.3542872
C	7.2466344	-3.7284024	0.0608582
H	8.2372769	-2.7709481	1.7175246
C	5.7116715	-2.3452254	-1.1929203
C	6.3359529	-3.5765881	-0.9839600
H	7.7304135	-4.6880464	0.2249623
H	6.1081857	-4.4173685	-1.6341243
H	4.9987618	-2.2395003	-2.0073488
