14
	Energy:      18.0803531
C         -5.91542       -0.97884        0.00000
H         -6.16583       -2.03549       -0.00000
H         -4.86154       -0.72605        0.00000
H         -7.92102       -0.39855       -0.00000
C         -6.88599       -0.05813       -0.00000
C         -6.72117        1.37761        0.00000
C         -5.56940        2.05724       -0.00000
H         -7.64894        1.94804        0.00000
H         -4.59679        1.58529       -0.00000
O         -5.55324        3.42814        0.00000
C         -4.23148        3.95970       -0.00000
H         -4.30396        5.05113        0.00000
H         -3.68831        3.65098       -0.89973
H         -3.68831        3.65098        0.89972



