13
	Energy:       2.3590179
O         -5.49255        0.99498       -0.31123
H         -5.08218       -0.85322        0.39453
C         -4.71499        0.15331        0.12715
C        -3.24595        0.40166        0.41045
C         -2.80915        1.78827       -0.04637
H        -2.94690        1.91470       -1.12598
H         -1.75299        1.96075        0.18537
H         -3.39489        2.56668        0.45463
C         -2.41754       -0.68427       -0.26607
H        -3.11632        0.32585        1.49634
H         -2.71447       -1.67863        0.08512
H         -1.35186       -0.55500       -0.05056
H        -2.55222       -0.66705       -1.35339

