7
	Energy:       1.5145534
C         -2.72546        2.09658        0.04244
C         -1.62490        2.84502        0.07639
H         -0.66841        2.42273        0.36218
H         -1.66301        3.89803       -0.18256
O         -3.93571        2.61579       -0.31557
H         -2.74466        1.04326        0.29038
H         -4.59733        1.90304       -0.27327
