15
	Energy:      -2.1567677
C         -5.91052       -0.20399        0.02935
C         -5.73830        1.08470        0.34950
H         -6.65580       -0.80779        0.53578
H         -5.31336       -0.68279       -0.74254
H         -6.33274        1.56240        1.11849
C         -4.72233        1.90803       -0.34047
O        -3.97859        1.51464       -1.22297
O         -4.77204        3.15629        0.18735
C         -3.84813        4.10033       -0.37287
C         -2.51422        4.01725        0.34527
H         -4.28158        5.09561       -0.22978
H         -3.73195        3.95239       -1.45278
H         -2.64695        4.16839        1.42159
H         -1.82148        4.77342       -0.03468
H         -2.05923        3.03013        0.21602
