12
	Energy:      37.0753032
C         -5.31643        2.62057        0.19473
O         -5.15973        3.49536        1.04200
H         -6.33855        2.30129       -0.07521
C         -4.21812        1.83799       -0.48651
Cl        -2.74850        2.84423       -0.61308
H         -4.53760        1.62136       -1.51093
C         -3.91605        0.55027        0.28599
H         -3.61839        0.77180        1.31800
H         -3.07241        0.03666       -0.19032
N         -5.04635       -0.39033        0.31678
H         -5.69495       -0.12331        1.06071
H         -4.69767       -1.30849        0.60318
