21
	Energy:     -36.7144531
H         -3.44128        5.05927        0.55542 
C         -2.72539        4.29848        0.26095
C         -1.49016        4.58570       -0.17962
N        -3.14929        3.00328        0.41168
H         -4.07651        2.83444        0.78853
C         -2.31711        1.93115        0.20091
C         -1.04889        2.05742       -0.23735
H         -2.76105        0.96913        0.43250
N         -0.19791        0.99137       -0.43448
H         -0.54674        0.04851       -0.30769
H          0.65888        1.13399       -0.95741
C         -0.53604        3.48243       -0.54529
H         -0.31141        3.54112       -1.61813
N          0.67109        3.71235        0.20946
H          1.13247        2.89432        0.58350
C          1.03491        4.96289        0.59041
N          0.39675        6.06029        0.40148
H          1.99631        4.97932        1.13032
C         -0.89547        5.95171       -0.29127
H         -1.57330        6.69815        0.13829
H         -0.75714        6.21499       -1.34632
