17
	Energy:      12.7682311
C         -1.44162        3.20218       -0.00109
H         -0.88927        4.13917       -0.00034
C         -0.73227        2.00223       -0.00139
H          0.35421        2.01172       -0.00106
C         -1.42018        0.79467       -0.00059
H         -0.87453       -0.14468        0.00060
C         -2.81605        0.79032        0.00065
H         -3.33620       -0.16383        0.00397
C         -3.54504        1.98658       -0.00268
N         -4.92948        1.93232        0.01588
H         -5.48337        2.77528       -0.00946
H         -5.40617        1.04227       -0.00855
C         -3.57090        4.52636        0.00106
H        -2.87261        5.37011        0.00103
H         -4.19588        4.61601        0.89538
H         -4.19614        4.61679       -0.89312
C         -2.84765        3.20797       -0.00029
