19
-0.00432163 (energy)
C	0.0528954	-0.0329958	-0.0567013
H	-0.6298162	0.3928749	0.6751323
C	0.5036775	-1.3396955	0.1232678
H	0.1737723	-1.9161650	0.9831366
C	1.3750089	-1.9020058	-0.8019407
H	1.7296631	-2.9202256	-0.6694166
C	1.7932348	-1.1558958	-1.9050637
H	2.4726351	-1.6136909	-2.6190722
C	1.3531799	0.1597458	-2.0997804
N	1.7820577	0.8553065	-3.2188076
H	1.5018718	1.8118243	-3.3756112
H	2.4347044	0.4330756	-3.8636274
C	-0.0439257	2.1317271	-1.3184030
H	-0.7181391	2.4075300	-0.5005448
H	-0.6030837	2.2317454	-2.2542364
H	0.7890229	2.8422299	-1.3118559
C	0.4689003	0.7265451	-1.1643980
Br	3.9783039	1.4535028	0.6252763
H	3.3862176	0.1833305	0.2495013
