19
-0.00424169 (energy)
C	0.3560119	-0.5326708	-2.3969590
H	0.6584872	-1.2622717	-3.1447775
C	0.3798765	-0.8974857	-1.0518203
H	0.6965157	-1.8961415	-0.7638010
C	-0.0013351	0.0214060	-0.0813886
H	0.0158974	-0.2548774	0.9690800
C	-0.4053833	1.3031057	-0.4588332
H	-0.6972744	2.0085616	0.3145366
C	-0.4389286	1.6856538	-1.8060552
N	-0.8308424	2.9742930	-2.1312865
H	-0.8878612	3.2733851	-3.0932172
H	-1.1266706	3.6157532	-1.4094599
C	-0.0588553	1.1054723	-4.2494338
H	0.2710817	0.2639828	-4.8679481
H	0.6187486	1.9429781	-4.4440677
H	-1.0714463	1.3717875	-4.5694279
C	-0.0498635	0.7557912	-2.7869405
Br	4.1637186	0.1040537	0.9243300
H	3.0330583	-0.0058258	0.0217533
