19
-0.00312327 (energy)
C	-1.3436359	-1.9631160	0.7047789
H	-2.3276293	-2.3987733	0.8628960
C	-1.2543838	-0.6538027	0.2348958
H	-2.1576861	-0.0849997	0.0323192
C	-0.0060311	-0.0790534	0.0282540
H	0.0718117	0.9412751	-0.3364157
C	1.1500856	-0.8153688	0.2922754
H	2.1171308	-0.3479179	0.1271014
C	1.0791391	-2.1334508	0.7614256
N	2.2539247	-2.8190407	1.0256376
H	2.2371299	-3.7769185	1.3421907
H	3.1489359	-2.3877687	0.8440373
C	-0.3292703	-4.1213036	1.4797495
H	-1.3813918	-4.4073232	1.5834614
H	0.1377493	-4.2205607	2.4648820
H	0.1356219	-4.8249536	0.7816002
C	-0.1848309	-2.7128537	0.9731425
Br	5.3288623	-0.3495958	0.5638213
H	5.7518902	0.8789192	-0.0818637
