19
-0.00308251 (energy)
C	-0.0804924	0.0232555	-0.0090458
H	0.9584095	-0.2768993	0.1077066
C	-0.4965228	0.5483091	-1.2314594
H	0.2117100	0.6527548	-2.0487881
C	-1.8203744	0.9358996	-1.4006117
H	-2.1526076	1.3446512	-2.3506944
C	-2.7249558	0.7972128	-0.3465852
H	-3.7565040	1.1033261	-0.4988099
C	-2.3234589	0.2749376	0.8897418
N	-3.2609911	0.1403368	1.9011164
H	-2.9987436	-0.2105396	2.8100333
H	-4.2114233	0.4520666	1.7613934
C	-0.4910593	-0.6920982	2.3588635
H	0.5743206	-0.9417019	2.3121036
H	-1.0345096	-1.6113497	2.5998695
H	-0.6235739	0.0342169	3.1672983
C	-0.9841459	-0.1198763	1.0586050
Br	3.9385018	-0.0484151	-0.0994751
H	4.1721780	-1.1096145	-1.0609126
