19
-0.00414669 (energy)
C	-0.0047382	0.0217450	0.0812796
H	0.0564169	-0.2589142	-0.9677827
C	0.2122710	-0.9536619	1.0531571
H	0.4380338	-1.9749572	0.7590211
C	0.1401608	-0.6141347	2.3988701
H	0.3094255	-1.3683094	3.1622074
C	-0.1487223	0.7003536	2.7691949
H	-0.1982082	0.9471605	3.8263641
C	-0.3731465	1.6925396	1.8060354
N	-0.6398395	2.9872322	2.2214974
H	-0.8287950	3.7193015	1.5533745
H	-0.7111068	3.2034888	3.2054553
C	-0.5225139	2.3673316	-0.6380412
H	-0.4263441	1.9251356	-1.6354062
H	0.2154895	3.1723279	-0.5620315
H	-1.5308996	2.7865125	-0.5599000
C	-0.2967536	1.3483057	0.4444851
Br	4.2647281	0.0145504	-0.6907992
H	2.9910167	0.0020141	0.0039044
