19
-0.0027873 (energy)
C	-0.9810014	0.4577056	-2.2324957
H	-1.8097776	0.8592769	-2.8112113
C	-1.0449692	0.5069893	-0.8409006
H	-1.9118601	0.9411839	-0.3504885
C	0.0033352	-0.0025926	-0.0840610
H	-0.0397113	0.0308694	1.0009003
C	1.1130853	-0.5603959	-0.7210725
H	1.9216265	-0.9561320	-0.1122842
C	1.1957930	-0.6149643	-2.1184477
N	2.3095565	-1.1934523	-2.7056830
H	2.4099468	-1.2272997	-3.7090742
H	3.0692127	-1.5345356	-2.1341904
C	0.1580604	-0.1344935	-4.3863595
H	-0.7474741	0.3077513	-4.8152531
H	0.2208433	-1.1676155	-4.7429583
H	1.0131237	0.4356914	-4.7637404
C	0.1327934	-0.1017763	-2.8831842
Br	4.6355998	0.1522754	1.3002501
H	3.5567196	1.1223867	1.2967489
