19
-0.00271265 (energy)
C	2.0896135	0.4666755	-2.3602256
H	2.8408996	-0.0250985	-2.9740406
C	1.8256051	1.8187145	-2.5731751
H	2.3659757	2.3648221	-3.3414818
C	0.8679355	2.4642740	-1.8001655
H	0.6555042	3.5174182	-1.9610198
C	0.1765293	1.7557789	-0.8160590
H	-0.5705231	2.2771455	-0.2235567
C	0.4315189	0.3976515	-0.5859596
N	-0.2919756	-0.2680323	0.3904539
H	-0.1159378	-1.2399693	0.5962865
H	-0.9652741	0.2293347	0.9555330
C	1.7157154	-1.7123856	-1.1773546
H	2.4918039	-2.0526064	-1.8712274
H	0.8241844	-2.3221967	-1.3555349
H	2.0828056	-1.8887325	-0.1610834
C	1.3986954	-0.2552616	-1.3710877
Br	4.4472121	-0.3748196	0.8903299
H	4.5919503	0.3591579	-0.3528268
