19
-0.00263869 (energy)
C	0.4730129	-1.2231856	-0.5898132
H	-0.1410570	-1.6367153	-1.3866524
C	0.0707401	-0.0384127	0.0246354
H	-0.8422898	0.4573729	-0.2933301
C	0.8411325	0.5046780	1.0458944
H	0.5335737	1.4269342	1.5306261
C	2.0120358	-0.1387613	1.4501775
H	2.5997329	0.2997743	2.2522173
C	2.4332633	-1.3280796	0.8414370
N	3.5935780	-1.9397182	1.2881256
H	3.9360816	-2.7842951	0.8552296
H	4.1489712	-1.5122272	2.0153181
C	2.0454182	-3.1546174	-0.8803356
H	1.3243036	-3.4336640	-1.6559965
H	2.0899863	-3.9780897	-0.1603685
H	3.0205572	-3.0382366	-1.3642983
C	1.6510400	-1.8783316	-0.1898251
Br	3.7582497	2.9069886	-0.6627494
H	3.7491546	1.4847678	-0.3758418
