19
-0.00256037 (energy)
C	-0.6603865	-3.0520548	-0.6354421
H	-0.5954694	-3.8202009	-1.4027612
C	-1.2199385	-3.3786078	0.5987873
H	-1.5829280	-4.3860175	0.7828882
C	-1.3100668	-2.4112515	1.5925281
H	-1.7435630	-2.6583403	2.5574850
C	-0.8401142	-1.1195592	1.3493220
H	-0.9167806	-0.3775533	2.1395870
C	-0.2782125	-0.7728744	0.1137850
N	0.1902024	0.5173797	-0.0754099
H	0.5789265	0.8049109	-0.9609816
H	0.0909635	1.2089199	0.6539342
C	0.4121064	-1.4470108	-2.2357181
H	0.4022815	-2.3243182	-2.8912775
H	1.4540058	-1.1294657	-2.1259178
H	-0.1606235	-0.6578813	-2.7336294
C	-0.1847025	-1.7536341	-0.8899671
Br	4.3202798	0.6227210	0.0260741
H	3.0691413	0.8620680	0.7206793
