19
-0.00250142 (energy)
C	-0.6317727	0.0377840	-2.7892712
H	-0.8882337	0.0525391	-3.8461777
C	-1.6508929	0.1671379	-1.8470827
H	-2.6815911	0.2805753	-2.1716164
C	-1.3433453	0.1488833	-0.4919062
H	-2.1321245	0.2477153	0.2484812
C	-0.0170798	0.0011339	-0.0824393
H	0.2033657	-0.0135006	0.9815903
C	1.0200743	-0.1265106	-1.0154419
N	2.3191705	-0.2879980	-0.5613125
H	3.0908635	-0.3593272	-1.2073929
H	2.5198378	-0.2734083	0.4284041
C	1.7733393	-0.2482940	-3.4380285
H	1.3513926	-0.2131901	-4.4481035
H	2.2917786	-1.2064935	-3.3306982
H	2.4957029	0.5701813	-3.3546639
C	0.7071173	-0.1110568	-2.3865623
Br	5.3417438	0.0416797	1.3830759
H	5.9194005	-1.0490586	0.6203744
