19
-0.0023847 (energy)
C	2.4214441	0.4533137	-0.2949752
H	3.4473645	0.1509305	-0.0972556
C	1.3808145	-0.3244720	0.2101951
H	1.5996505	-1.2164971	0.7906526
C	0.0632604	0.0464992	-0.0303323
H	-0.7532303	-0.5536584	0.3611617
C	-0.2101973	1.1947164	-0.7755114
H	-1.2467467	1.4700545	-0.9507929
C	0.8230247	1.9860822	-1.2938433
N	0.5027952	3.1262648	-2.0131480
H	1.2231202	3.7044435	-2.4191765
H	-0.4624716	3.3610947	-2.1951761
C	3.3101424	2.4202405	-1.5711823
H	4.2727173	1.9822987	-1.2862619
H	3.2774329	3.4363664	-1.1651483
H	3.2784506	2.4617544	-2.6647694
C	2.1559768	1.6112889	-1.0470224
Br	5.3903841	-1.9667148	1.2938786
H	4.2597239	-1.6614650	2.1503486
