19
-0.00412738 (energy)
C	0.0272821	-0.5462788	1.9101264
H	0.0363874	-1.6220694	1.7500236
C	0.0384396	-0.0596515	3.2163143
H	0.0557596	-0.7503988	4.0548232
C	0.0288458	1.3117495	3.4412347
H	0.0388540	1.6987743	4.4562350
C	0.0082551	2.1931161	2.3589952
H	0.0037282	3.2620323	2.5548702
C	-0.0068380	1.7216756	1.0399078
N	-0.0099170	2.6348175	-0.0022655
H	-0.0441719	2.3276736	-0.9627378
H	-0.0415302	3.6263027	0.1874099
C	-0.0042715	-0.2363537	-0.5778932
H	0.0063647	-1.3314637	-0.5658995
H	0.8801371	0.0956436	-1.1311062
H	-0.9081484	0.0780252	-1.1097136
C	0.0060895	0.3335916	0.8136167
Br	3.7583609	-0.2379210	-0.3659336
H	3.1662746	0.3292104	0.8311072
