19
-0.00217838 (energy)
C	0.8281170	0.9177372	-0.7347002
H	0.4859073	1.9497588	-0.7641162
C	0.0709264	-0.0233110	-0.0388926
H	-0.8445090	0.2775595	0.4630874
C	0.4908405	-1.3472562	0.0086796
H	-0.0945108	-2.0868026	0.5477054
C	1.6671315	-1.7267324	-0.6400196
H	1.9777870	-2.7670809	-0.5937851
C	2.4422901	-0.7937328	-1.3408165
N	3.5933137	-1.2205969	-1.9833852
H	4.1854152	-0.5694536	-2.4767878
H	3.8902410	-2.1833834	-1.9134164
C	2.7986109	1.5939949	-2.1300926
H	2.3213449	2.5774496	-2.0625868
H	2.8722743	1.3357193	-3.1913715
H	3.8033772	1.6860982	-1.7050959
C	2.0145510	0.5451802	-1.3908482
Br	4.7000558	0.3349580	1.5200784
H	4.1804095	-0.9517482	1.0964446
