19
-0.00194633 (energy)
C	0.0547206	-0.3106917	1.9616891
H	0.5268037	-1.2902724	1.9371862
C	-0.2723190	0.2486298	3.1958942
H	-0.0559583	-0.2917537	4.1133377
C	-0.8744524	1.5000911	3.2478724
H	-1.1310691	1.9432928	4.2059088
C	-1.1478841	2.1891433	2.0651147
H	-1.6166628	3.1676567	2.1261663
C	-0.8293847	1.6406851	0.8160241
N	-1.1043400	2.3693660	-0.3300066
H	-0.9084743	1.9926816	-1.2453007
H	-1.5647561	3.2660633	-0.2669973
C	0.1540478	-0.2661470	-0.5433939
H	0.6177908	-1.2471774	-0.3949194
H	0.8722052	0.3594186	-1.0831743
H	-0.7385249	-0.4141416	-1.1598937
C	-0.2171604	0.3754877	0.7649463
Br	4.2651887	-0.3514367	-0.4709721
H	3.3435764	0.0291254	0.5830270
