19
-0.0018941 (energy)
C	1.9118342	1.6331551	-1.3631920
H	2.6291925	2.2675128	-1.8789717
C	0.8069372	2.2243024	-0.7526142
H	0.6722227	3.3015750	-0.7957954
C	-0.1216305	1.4303076	-0.0902275
H	-0.9860475	1.8833740	0.3868760
C	0.0571927	0.0468322	-0.0403111
H	-0.6809832	-0.5576227	0.4799773
C	1.1634459	-0.5637579	-0.6451739
N	1.2896522	-1.9422655	-0.5839251
H	2.0864435	-2.4100787	-0.9892551
H	0.6142939	-2.4949549	-0.0755504
C	3.3068320	-0.3533996	-1.9915805
H	3.9268148	0.4169474	-2.4624413
H	2.9984149	-1.0526442	-2.7754053
H	3.9310766	-0.8760572	-1.2595913
C	2.1007713	0.2406009	-1.3179147
Br	5.4517175	-0.3773435	1.2770252
H	5.4200355	1.0641549	1.4388566
