19
-0.00183524 (energy)
C	-0.5542953	1.2918594	-0.3027536
H	0.1641310	2.0874631	-0.4869266
C	-0.0828200	0.0146491	-0.0035841
H	0.9861235	-0.1744246	0.0426758
C	-0.9851917	-1.0146625	0.2365508
H	-0.6255865	-2.0124093	0.4717086
C	-2.3570617	-0.7638674	0.1769858
H	-3.0470883	-1.5808321	0.3703800
C	-2.8485150	0.5125700	-0.1257626
N	-4.2185545	0.7174866	-0.1568066
H	-4.6043109	1.6190420	-0.3943094
H	-4.8538175	-0.0524171	-0.0028315
C	-2.3971359	2.9473770	-0.6906847
H	-1.5528669	3.6269949	-0.8483308
H	-2.9955577	3.3508278	0.1324582
H	-2.9928997	2.9443001	-1.6092252
C	-1.9342405	1.5541066	-0.3654618
Br	4.2871375	-0.1767533	0.0451134
H	3.6775983	0.7489412	0.9814159
