19
-0.00402684 (energy)
C	-0.3032791	0.9951425	-2.6642656
H	-0.4349960	1.3750944	-3.6748736
C	-1.4011293	0.9702801	-1.8056827
H	-2.3687268	1.3265665	-2.1482379
C	-1.2531774	0.4867972	-0.5111649
H	-2.1043018	0.4628744	0.1634674
C	-0.0073896	0.0291986	-0.0786262
H	0.0879868	-0.3476625	0.9361883
C	1.1074142	0.0502048	-0.9267103
N	2.3197600	-0.4302850	-0.4584048
H	3.1464735	-0.4074297	-1.0363669
H	2.4073661	-0.7537041	0.4943514
C	2.1114297	0.5814917	-3.1984612
H	1.8133942	0.9898469	-4.1700290
H	2.5017031	-0.4267281	-3.3705802
H	2.9082902	1.2201000	-2.8036787
C	0.9556101	0.5368020	-2.2375614
Br	3.3322404	-0.9619801	3.3364872
H	4.7086867	-0.8106351	2.9033576
