19
-0.00159735 (energy)
C	-1.6757809	-1.5440419	2.2276957
H	-1.7582783	-1.7159245	3.2985327
C	-2.5839369	-2.1675685	1.3735734
H	-3.3581471	-2.8131148	1.7790329
C	-2.4958256	-1.9589291	0.0023958
H	-3.2007264	-2.4401737	-0.6696401
C	-1.4995494	-1.1269364	-0.5111170
H	-1.4483168	-0.9739125	-1.5857928
C	-0.5763497	-0.4951753	0.3321242
N	0.3844444	0.3352671	-0.2221347
H	1.0778553	0.7863368	0.3555635
H	0.4430380	0.4513141	-1.2236930
C	0.2884488	-0.0522101	2.6788391
H	0.0708831	-0.3272541	3.7164031
H	0.2165775	1.0376608	2.6049389
H	1.3147073	-0.3669054	2.4633843
C	-0.6685791	-0.7046456	1.7198447
Br	3.9637234	0.2217128	-0.2287042
H	4.2496076	1.2775512	-1.1819021
