19
-0.00400828 (energy)
C	0.1023193	-0.3568958	1.3892300
H	-0.2785632	0.3744752	2.0985018
C	0.0332292	-0.0727316	0.0263159
H	-0.3956539	0.8660030	-0.3133391
C	0.5162716	-0.9939160	-0.8953735
H	0.4672678	-0.7791653	-1.9591378
C	1.0674122	-2.1971191	-0.4515044
H	1.4423049	-2.9036791	-1.1871658
C	1.1416013	-2.5007637	0.9140619
N	1.7126223	-3.7002913	1.3078022
H	1.7599670	-3.9587422	2.2819580
H	2.0341363	-4.3638435	0.6176237
C	0.7100332	-1.8297096	3.3254102
H	0.2873621	-0.9983395	3.8996018
H	1.7473402	-1.9604826	3.6499682
H	0.1332394	-2.7269018	3.5724237
C	0.6552836	-1.5662786	1.8459336
Br	4.5358999	0.2115531	-0.6023692
H	3.1877207	0.0957928	-0.0788015
