19
-0.00384878 (energy)
C	-1.1131489	1.7846354	1.9381883
H	-1.5381697	2.4748903	2.6634102
C	-1.0721235	2.1587941	0.5960334
H	-1.4605669	3.1256045	0.2879449
C	-0.5312924	1.2911933	-0.3453445
H	-0.4944606	1.5761102	-1.3929989
C	-0.0326523	0.0514193	0.0581302
H	0.3887858	-0.6122405	-0.6921463
C	-0.0690641	-0.3424435	1.4020133
N	0.4533450	-1.5756338	1.7573910
H	0.4212432	-1.8982425	2.7128547
H	0.8186120	-2.1983741	1.0511377
C	-0.6778857	0.1769705	3.8125548
H	-1.1327028	0.9766277	4.4068719
H	0.3291582	0.0059014	4.2063103
H	-1.2842072	-0.7235901	3.9540661
C	-0.6137731	0.5378204	2.3541580
Br	3.2715995	-1.2523158	-1.2039949
H	3.3496279	-0.1594489	-0.2528565
