19
-0.00368171 (energy)
C	2.4809751	0.0213951	0.0141450
H	3.3974696	0.5218756	0.3184449
C	1.2562622	0.5897614	0.3606932
H	1.2266261	1.5173774	0.9256527
C	0.0742543	-0.0338922	-0.0205359
H	-0.8841332	0.4035484	0.2445169
C	0.1201672	-1.2245529	-0.7476483
H	-0.8146350	-1.6959636	-1.0390005
C	1.3418991	-1.8116814	-1.1013809
N	1.3375253	-2.9851054	-1.8382796
H	2.1998785	-3.4451024	-2.0888139
H	0.4652127	-3.4319049	-2.0821241
C	3.8809639	-1.7539023	-1.0701248
H	4.6990240	-1.1321490	-0.6910161
H	3.9931856	-1.8190539	-2.1571423
H	3.9937210	-2.7500358	-0.6300518
C	2.5373871	-1.1778537	-0.7176845
Br	5.6715371	2.1719508	1.3684094
H	5.9867827	1.2811927	2.4694457
