11
-0.0051829 (energy)
C	-0.3232331	0.7936178	-1.1251881
H	-1.2499456	1.3451851	-1.2303426
C	-0.0171076	0.0450526	-0.0650731
H	-0.7149411	-0.0402644	0.7621653
H	0.9186386	-0.4961691	0.0126490
O	0.4862100	0.9622159	-2.2108075
H	1.3027158	0.4515155	-2.0733510
C	4.3025845	0.2710838	0.2314463
H	5.3465985	0.2473997	0.5824520
H	3.5782038	0.7250258	0.9264033
O	3.9695172	-0.1772303	-0.8584250
