11
-0.00474291 (energy)
C	-1.2469885	-0.0694510	-0.5967972
H	-1.2830532	-0.7238599	-1.4596578
C	-2.2943120	0.6148278	-0.1355135
H	-3.2578215	0.5358430	-0.6294614
H	-2.2284966	1.2626254	0.7308635
O	0.0008595	-0.0353895	-0.0455185
H	-0.0136404	0.5616562	0.7224120
C	2.7123466	-1.3264124	1.3283758
H	2.6192226	-2.4237803	1.3574083
H	3.2046170	-0.9152163	0.4326395
O	2.2964465	-0.6114207	2.2314555
