11
-0.00334914 (energy)
C	-0.4467037	1.0332834	0.8562350
H	-1.2451344	0.9168550	1.5794452
C	-0.0244957	0.0601347	0.0483806
H	-0.4856550	-0.9217877	0.0900253
H	0.7773212	0.2057735	-0.6660854
O	0.0687288	2.2966336	0.8778840
H	0.7791369	2.3550113	0.2158391
C	3.9797633	0.5013466	1.1345921
H	4.9683893	0.1094919	0.8468423
H	3.3369529	-0.1966246	1.6944018
O	3.6194166	1.6369227	0.8511206
