11
0.00170057 (energy)
C	0.0724169	0.0001422	-0.0424695
H	-0.8622554	-0.0016935	0.5056769
C	0.1776841	0.3056657	-1.3361003
H	-0.7060234	0.5738265	-1.9068231
H	1.1271136	0.2990535	-1.8587117
O	1.1224824	-0.3483975	0.7563268
H	1.9371007	-0.3334748	0.2247580
C	4.6449597	-1.9719684	0.0375902
H	4.6001216	-2.9583375	-0.4510783
H	4.9748392	-1.1390030	-0.6035837
O	4.3479530	-1.8121082	1.2148628
