11
0.00317399 (energy)
C	0.5342269	0.4483060	1.1956564
H	0.7014387	1.5184456	1.2260124
C	0.8101695	-0.3785216	2.2046749
H	1.2288407	0.0089035	3.1283577
H	0.6321392	-1.4459552	2.1457388
O	0.0078740	0.0571137	-0.0010534
H	-0.1249653	-0.9064364	0.0167181
C	0.1351385	4.1536660	-0.7561389
H	1.1813678	3.9218679	-0.5003946
H	-0.1930047	5.1804236	-0.5284402
O	-0.6131051	3.3253452	-1.2598798
