11
-0.00447798 (energy)
C	1.1738294	-0.5754582	0.5397494
H	1.8382327	-1.2273165	-0.0149840
C	0.0669047	-0.0322226	0.0322860
H	-0.2172803	-0.2332223	-0.9960193
H	-0.5793421	0.6168910	0.6115954
O	1.6125810	-0.3826287	1.8174453
H	0.9884307	0.2060446	2.2760205
C	1.6139718	4.0048048	2.0317672
H	1.2183129	5.0040390	1.7894528
H	2.6350614	3.7986608	1.6731078
O	0.9622982	3.1784098	2.6579716
