11
0.00463817 (energy)
C	-0.3167213	-1.3679584	0.1695122
H	-0.7864991	-1.7746473	1.0572019
C	-0.0175381	-0.0786199	0.0082611
H	-0.2439964	0.6361362	0.7933816
H	0.4528190	0.2999773	-0.8917451
O	-0.0717482	-2.3390420	-0.7574063
H	0.3484344	-1.9302544	-1.5337634
C	3.4143979	-2.1512013	-0.0075524
H	3.2833316	-2.3768122	-1.0779041
H	4.4303144	-1.8490357	0.2930559
O	2.4924103	-2.2309630	0.7945173
