11
0.00517065 (energy)
C	-0.9552707	0.1943115	0.9826859
H	-0.5559480	0.5914305	1.9083845
C	-2.2435715	-0.0881229	0.7866801
H	-2.9651082	0.0772110	1.5807980
H	-2.6146910	-0.4849176	-0.1510870
O	0.0238492	0.0211321	0.0480597
H	-0.3785037	-0.3353823	-0.7627427
C	3.5740121	-1.0730598	0.4676006
H	4.5666687	-1.3946226	0.1141017
H	3.1116198	-1.7158528	1.2336074
O	3.0214747	-0.0682208	0.0377868
