11
0.00519113 (energy)
C	-0.3406904	1.1649823	-0.6653698
H	-0.5560912	1.0207444	-1.7174525
C	-0.3928607	2.3459642	-0.0485501
H	-0.6640796	3.2392039	-0.6027493
H	-0.1719346	2.4601535	1.0063126
O	-0.0109309	-0.0104681	-0.0556419
H	0.1734810	0.1661355	0.8830776
C	3.0733267	-2.2928639	-1.0362382
H	3.2916282	-3.1096743	-0.3299122
H	3.9528570	-1.8186528	-1.5002493
O	1.9294126	-1.9358719	-1.2887381
