11
0.00548915 (energy)
C	-0.2183154	0.6030729	-1.2605548
H	-0.3551224	1.6680519	-1.4061013
C	-0.0124201	0.0330932	-0.0728526
H	0.0266207	0.6421754	0.8249606
H	0.1212632	-1.0362100	0.0424826
O	-0.2833602	-0.0765987	-2.4420830
H	-0.1557848	-1.0244500	-2.2640566
C	3.7313375	1.5481261	-0.9185115
H	4.2120628	2.4787121	-1.2600436
H	4.3791333	0.6571314	-0.9028596
O	2.5554419	1.5068570	-0.5789450
