11
0.00579889 (energy)
C	-1.3170249	-0.2673837	0.3315449
H	-1.8349121	-0.8818278	-0.3953192
C	-1.8770315	0.1986482	1.4482873
H	-2.9132789	-0.0314996	1.6758772
H	-1.3338070	0.8117826	2.1579040
O	-0.0251529	-0.0327713	-0.0402301
H	0.3991945	0.5201047	0.6384807
C	3.7284901	-0.6242283	-0.2550312
H	4.7251699	-0.5579135	-0.7197496
H	3.7004614	-0.4595681	0.8339395
O	2.7191646	-0.8648967	-0.9054770
