11
0.00604899 (energy)
C	-1.0797029	0.9067527	0.1113470
H	-2.0566956	0.6397136	0.4963867
C	-0.0608926	0.0530625	0.0057766
H	-0.1812659	-0.9806534	0.3148324
H	0.9063042	0.3488470	-0.3836132
O	-1.0256627	2.2216090	-0.2497978
H	-0.1344462	2.4157402	-0.5880836
C	2.1691441	1.5469654	2.3772493
H	2.7727928	0.7743552	2.8796565
H	2.7404359	2.3251589	1.8464044
O	0.9448778	1.5411601	2.4068697
