11
-0.0037465 (energy)
C	0.0245490	-0.0262955	0.0758536
H	-0.2923013	0.3130964	-0.9031761
C	0.3482635	-1.2884342	0.3589110
H	0.3033045	-2.0494734	-0.4139873
H	0.6621195	-1.5992164	1.3486036
O	0.0497668	0.9978626	0.9773287
H	0.3384877	0.6485849	1.8381633
C	2.9933178	3.1358187	1.6314752
H	2.5391530	4.1048278	1.8931753
H	3.5539105	3.1148283	0.6832922
O	2.8824331	2.1479929	2.3467679
