11
-0.00359619 (energy)
C	-1.3317671	-0.3596649	0.1140540
H	-1.5731146	-1.3010952	-0.3650498
C	-2.2194180	0.3980228	0.7589507
H	-3.2563060	0.0839841	0.8283527
H	-1.9488699	1.3362325	1.2292153
O	-0.0100988	-0.0503234	-0.0262805
H	0.1602754	0.7986679	0.4170900
C	3.1114020	-0.9890346	-1.7845176
H	2.3511378	-0.7630853	-2.5491591
H	2.7692402	-0.9192856	-0.7396175
O	4.2601120	-1.2971504	-2.0765258
