11
-0.00593893 (energy)
C	-1.3428866	-0.1170176	-0.3145367
H	-1.6855874	-1.1418069	-0.3948061
C	-2.1248747	0.9473382	-0.4976971
H	-3.1742758	0.8172777	-0.7434925
H	-1.7539874	1.9619708	-0.4108290
O	-0.0155794	-0.0553991	-0.0036480
H	0.2472556	0.8792243	0.0578965
C	3.6175586	0.1572332	0.0620143
H	4.7088129	0.0931030	0.1990643
H	3.0988819	-0.8050286	-0.0750357
O	3.0209290	1.2267059	0.0620143
