11
-0.00520686 (energy)
C	-0.5983940	-0.9096727	0.8546291
H	-1.2369171	-0.4532863	1.6016765
C	-0.3938605	-2.2231296	0.7502087
H	-0.8803328	-2.9072705	1.4385907
H	0.2510659	-2.6516943	-0.0080690
O	-0.0333310	0.0268457	0.0386451
H	0.5289868	-0.4260613	-0.6133250
C	3.7008983	0.2212271	-0.4341347
H	4.5725100	0.8949615	-0.4444392
H	3.3230309	-0.0510451	0.5642840
O	3.1864133	-0.1970955	-1.4637222
