11
-0.00366065 (energy)
C	-0.0569047	0.5402837	-1.2731167
H	-0.1670108	1.6181443	-1.2862800
C	0.0187590	-0.2150540	-2.3693131
H	-0.0294194	0.2436360	-3.3520929
H	0.1288446	-1.2923386	-2.3254766
O	-0.0058510	0.0573252	0.0021627
H	0.0928592	-0.9097922	-0.0343240
C	3.0357281	-0.1426445	0.1077884
H	3.2003358	0.5997001	0.9050086
H	2.6945032	0.2647777	-0.8572653
O	3.2197577	-1.3406824	0.2826513
