11
-0.00338113 (energy)
C	-0.3491597	-0.3980930	-1.2788981
H	0.2003498	-1.2620915	-1.6333355
C	-1.2793984	0.2379162	-1.9916777
H	-1.5274628	-0.1027661	-2.9921643
H	-1.8134815	1.1006071	-1.6107546
O	0.0306363	-0.0460307	-0.0163609
H	-0.4862200	0.7305411	0.2596585
C	2.8657441	0.0699179	-0.0417983
H	2.7426469	-0.9546410	-0.4276188
H	2.6152837	0.2100024	1.0218754
O	3.2549854	0.9915334	-0.7480950
