11
-0.00316009 (energy)
C	-0.2668197	1.2951724	-0.4090311
H	0.4060264	1.6587916	-1.1765852
C	-1.2655823	2.0117050	0.1076514
H	-1.4453304	3.0251044	-0.2377268
H	-1.9234333	1.6213222	0.8753858
O	0.0371496	0.0168228	-0.0407675
H	-0.5895902	-0.2669903	0.6470103
C	3.3210466	0.0138634	-0.0454473
H	2.6854916	-0.0685582	0.8506598
H	3.5385041	-0.9345356	-0.5621749
O	3.7567017	1.0879516	-0.4407675
