11
-0.00505608 (energy)
C	0.1563708	0.5563184	-1.2908970
H	-0.6168380	1.1122676	-1.8077615
C	0.0104371	0.0312819	-0.0739556
H	-0.9265945	0.1481406	0.4616652
H	0.8023223	-0.5206083	0.4189112
O	1.2926165	0.4627436	-2.0408186
H	1.9563375	-0.0419871	-1.5397076
C	4.8085485	-0.3828535	1.2308760
H	5.3665750	-1.3307248	1.1686043
H	5.2074273	0.3570320	1.9430705
O	3.8114713	-0.1661203	0.5536739
