11
-0.00300231 (energy)
C	-0.0183273	0.5076096	1.2876208
H	-0.0245176	-0.2542919	2.0580414
C	-0.0272775	1.8179040	1.5345115
H	-0.0416582	2.1799762	2.5578739
H	-0.0207247	2.5578505	0.7426662
O	-0.0002938	-0.0425317	0.0389366
H	0.0046622	0.6750089	-0.6179515
C	3.4716918	-0.1161420	-0.4754262
H	3.7597037	-1.1792879	-0.4530393
H	3.9302327	0.5164476	0.3013149
O	2.6938012	0.3325052	-1.3080971
