11
-0.00296317 (energy)
C	-1.3019677	-0.0119337	-0.4697960
H	-1.7416949	-1.0012320	-0.5146195
C	-1.9377994	1.1037411	-0.8288145
H	-2.9593957	1.0561352	-1.1930239
H	-1.4721068	2.0807867	-0.7731819
O	-0.0209422	-0.0537088	-0.0013718
H	0.3323671	0.8523971	0.0217712
C	3.2863975	-0.8313296	-0.0649208
H	2.5268203	-0.9532391	0.7236930
H	3.0097396	-1.2258343	-1.0556692
O	4.3661383	-0.2932359	0.1456831
