11
-0.00288815 (energy)
C	-0.6087316	-0.4829673	-1.1454951
H	-0.1532106	-1.3854300	-1.5355488
C	-1.6585409	0.1227459	-1.7012995
H	-2.1105252	-0.2849138	-2.6002420
H	-2.0935393	1.0254692	-1.2884439
O	0.0261179	-0.0479281	-0.0185968
H	-0.4145102	0.7606537	0.2951442
C	3.8244808	-0.0860174	0.0293835
H	2.7898934	-0.3465952	0.3040822
H	4.3004448	0.6881597	0.6521707
O	4.4065702	-0.6211708	-0.9057751
