11
-0.0027707 (energy)
C	0.4776215	1.2986326	-0.0374401
H	-0.2740614	2.0336971	-0.2996102
C	1.7501108	1.5953792	0.2283024
H	2.0894424	2.6258655	0.1892397
H	2.4806953	0.8381747	0.4880528
O	-0.0419091	0.0369913	-0.0141547
H	0.6651280	-0.5870793	0.2246450
C	4.4367916	-0.6519725	-1.7848777
H	4.1457580	0.2854646	-2.2851203
H	4.6329563	-1.5056440	-2.4530994
O	4.5356500	-0.7392697	-0.5673618
