11
-0.00272593 (energy)
C	0.4109980	0.4306426	-1.2496393
H	1.4875134	0.4708045	-1.3661796
C	-0.4556494	0.7607938	-2.2076732
H	-0.0967617	1.0946136	-3.1763515
H	-1.5284738	0.7107121	-2.0623379
O	0.0575443	0.0012071	-0.0035058
H	-0.9132688	-0.0191571	0.0556401
C	4.5400354	-0.4121489	0.2943079
H	5.3483554	-1.0382580	0.7045973
H	4.3040719	0.4964958	0.8708857
O	3.9436431	-0.7065307	-0.7339890
