11
-0.00264826 (energy)
C	-1.1044079	-0.3775968	0.7440931
H	-1.1958644	0.1466505	1.6879578
C	-1.9642355	-1.3039007	0.3191649
H	-2.8198874	-1.5748863	0.9299025
H	-1.8471835	-1.8123574	-0.6307579
O	-0.0024719	0.0293299	0.0495857
H	0.0392302	-0.4654864	-0.7869601
C	3.8489214	0.0627660	-0.2533642
H	2.7865280	-0.2211026	-0.3202245
H	4.1305436	0.6407500	0.6412750
O	4.6624826	-0.2436912	-1.1158844
