11
-0.00246854 (energy)
C	0.0092938	0.5076886	1.2876865
H	0.0235501	-0.2541409	2.0580713
C	0.0011775	1.8179699	1.5346753
H	0.0089014	2.1801059	2.5580871
H	-0.0131263	2.5578433	0.7428638
O	0.0007544	-0.0425280	0.0389345
H	-0.0119730	0.6749496	-0.6179179
C	3.7208825	-0.2345451	-0.4094123
H	2.6782706	-0.5405727	-0.5911780
H	3.9086687	0.2613679	0.5562805
O	4.6116063	-0.4323973	-1.2262383
