11
-0.00234946 (energy)
C	1.1419426	-0.7901726	0.2682376
H	1.3824574	-1.7048702	-0.2604977
C	0.0658052	-0.0442106	0.0164928
H	-0.6341412	-0.3406780	-0.7585916
H	-0.1493898	0.8670863	0.5622141
O	2.0763827	-0.5008567	1.2197160
H	1.8209348	0.3244554	1.6669266
C	4.2255150	0.3605948	-1.1353835
H	4.1643675	1.2927150	-0.5513079
H	4.2443947	-0.5693280	-0.5449235
O	4.2695554	0.3582886	-2.3592274
