11
-0.00231669 (energy)
C	-0.0785972	-0.0184813	-0.0229957
H	0.9358434	0.2200533	0.2738064
C	-1.1652097	0.4656189	0.5793553
H	-1.0656385	1.1428337	1.4219936
H	-2.1686802	0.2091342	0.2602233
O	-0.1016932	-0.8732179	-1.0865205
H	-1.0283206	-1.0588035	-1.3174114
C	4.4934187	0.7899415	-0.7042447
H	5.4790423	0.4048207	-1.0107730
H	4.2543343	1.8092471	-1.0471887
O	3.7155272	0.1291443	-0.0275094
