11
-0.00231502 (energy)
C	-0.0114754	-0.0817919	-0.0150429
H	0.1366351	0.9738817	0.1791133
C	-0.4403145	-0.5731675	-1.1780362
H	-0.6646224	0.0956754	-2.0032083
H	-0.5793273	-1.6351710	-1.3435858
O	0.2954204	-0.8400689	1.0772135
H	0.1483089	-1.7764221	0.8581432
C	3.2959761	-0.3880084	1.2507966
H	3.0049425	-1.4333148	1.4414933
H	3.4921408	0.2213584	2.1474277
O	3.3948344	0.0662465	0.1178278
