11
-0.00461605 (energy)
C	-0.7115063	-0.6903962	0.9659621
H	-1.6114165	-0.1828730	1.2925533
C	-0.3081679	-1.8706752	1.4373070
H	-0.8920570	-2.3836491	2.1952681
H	0.5975713	-2.3550389	1.0914587
O	-0.0472728	0.0291273	0.0155553
H	0.7502542	-0.4622710	-0.2468742
C	4.2033001	0.0586702	-0.3703177
H	4.2603096	0.6513116	-1.2972791
H	4.8161910	0.4276003	0.4675434
O	3.5052795	-0.9432698	-0.2774604
