11
-0.00225868 (energy)
C	0.0179109	-0.0811544	0.0118763
H	-0.2132617	0.9662915	-0.1414088
C	0.2076052	-0.9554279	-0.9768443
H	0.1337102	-0.6336599	-2.0110487
H	0.4378825	-1.9984219	-0.7932186
O	0.0896911	-0.3894329	1.3392816
H	0.2983044	-1.3353904	1.4289254
C	3.2632377	1.0362138	0.5553021
H	2.7113454	0.5806349	1.3929142
H	2.8815480	2.0099107	0.2089163
O	4.2360157	0.4963584	0.0434445
