11
-0.00223412 (energy)
C	0.0360969	-0.0754259	-0.0074722
H	-0.4298000	0.8980828	0.0889699
C	0.3085463	-0.6594362	-1.1747809
H	0.0625112	-0.1583462	-2.1058820
H	0.7756912	-1.6351512	-1.2406494
O	0.3069074	-0.6243925	1.2121549
H	0.7225585	-1.4935950	1.0775732
C	3.7578502	0.7801005	1.2446102
H	2.9753093	0.1014440	1.6198252
H	3.8416729	1.7447552	1.7701300
O	4.4859107	0.4821095	0.3060644
