11
-0.00221115 (energy)
C	-0.0189015	0.0539332	-0.0614965
H	0.2250574	-0.6421736	0.7322285
C	-0.5945619	1.2400491	0.1376287
H	-0.8484931	1.5611067	1.1431210
H	-0.8271611	1.9164016	-0.6766364
O	0.3365146	-0.4360375	-1.2845260
H	0.0999232	0.2190501	-1.9636989
C	3.1306448	-0.3252881	-1.2108659
H	3.0608518	-1.3626902	-1.5750872
H	3.1474927	0.4518903	-1.9915488
O	3.1858111	-0.0541236	-0.0179009
