11
-0.00216044 (energy)
C	0.0508256	0.0581280	0.0329512
H	-0.6051715	-0.6921199	-0.3923441
C	-0.1398729	1.3719984	-0.0906819
H	-0.9939861	1.7494102	-0.6444190
H	0.5338267	2.0999715	0.3460866
O	1.0916343	-0.5107194	0.7077274
H	1.6518233	0.1968780	1.0708873
C	5.1527534	-0.4326459	-0.8009799
H	6.1262358	-0.3548368	-0.2910692
H	5.1927449	-0.7533223	-1.8542240
O	4.0967241	-0.1795885	-0.2348500
