11
-0.00209102 (energy)
C	-0.0783451	0.0251822	0.0166066
H	0.9328419	-0.2998404	-0.1977324
C	-0.9081006	0.5316774	-0.8960133
H	-0.5848711	0.6397534	-1.9267490
H	-1.9153837	0.8487932	-0.6522903
O	-0.3923203	-0.1492543	1.3331113
H	-1.3048995	0.1545681	1.4789952
C	3.7327351	0.9101996	0.9608175
H	3.6226642	0.6355219	2.0220280
H	3.8796157	1.9836278	0.7609826
O	3.6943848	0.0779285	0.0632692
