11
-0.00205563 (energy)
C	-0.0734697	-0.0082537	0.0397739
H	0.8747914	0.0982749	-0.4735804
C	-0.5137364	0.8336918	0.9752948
H	0.0880365	1.6892870	1.2658117
H	-1.4677131	0.7017789	1.4723966
O	-0.7558714	-1.1085374	-0.3913836
H	-1.5968974	-1.1640829	0.0943951
C	4.0694870	-0.5334535	1.0919642
H	3.8752610	-0.1176351	2.0935143
H	4.6986969	-1.4374609	1.0670337
O	3.6162475	-0.0247829	0.0743361
