11
-0.00204679 (energy)
C	-0.0785984	-0.0138182	0.0260620
H	0.9358580	0.1645314	-0.3103154
C	-0.6718372	0.6726731	1.0031514
H	-0.1361135	1.4659042	1.5153608
H	-1.6890160	0.4718949	1.3187750
O	-0.6682671	-1.0255667	-0.6745440
H	-1.5733459	-1.1501490	-0.3403245
C	4.9295159	-0.1287891	-0.0447707
H	5.4435270	-0.6356626	-0.8769986
H	5.5816199	0.2330065	0.7661671
O	3.7144475	0.0223891	-0.0225735
