11
-0.00176351 (energy)
C	-0.0748355	-0.0268741	0.0269316
H	0.8910538	0.3199851	-0.3206698
C	-0.6396730	0.3622697	1.1703616
H	-0.1295971	1.0687470	1.8178846
H	-1.6081539	-0.0019531	1.4928042
O	-0.6362739	-0.9082779	-0.8506260
H	-1.4980199	-1.1918900	-0.4994151
C	3.5168655	-1.3156782	-0.0530737
H	3.2784661	-1.9045761	0.8469798
H	3.6380207	-1.8958651	-0.9817612
O	3.6390324	-0.0975136	-0.0232544
