11
-0.00170342 (energy)
C	0.0168023	0.0249558	-0.0783758
H	-0.2000619	-0.2971445	0.9332078
C	1.2415733	0.0565885	-0.6045334
H	2.0976254	-0.2520541	-0.0125128
H	1.4285472	0.3839062	-1.6206469
O	-1.1179469	0.3921542	-0.7414766
H	-0.8764902	0.6726970	-1.6411351
C	5.9910897	-0.6685234	-0.0828702
H	6.9168028	-0.2747469	0.3662695
H	6.1274929	-1.4720152	-0.8241874
O	4.8843774	-0.2416202	0.2215643
