11
-0.00423883 (energy)
C	0.0032304	0.6093555	-1.2763356
H	-0.7496883	1.3120467	-1.6131121
C	0.0015192	0.0340983	-0.0734296
H	-0.7868179	0.2599129	0.6379817
H	0.7687286	-0.6659160	0.2363323
O	0.9484429	0.3896134	-2.2357520
H	1.6008849	-0.2444852	-1.8913259
C	3.9034092	1.2175352	-0.0507728
H	4.3884927	1.9957869	0.5597594
H	3.6048608	1.5271833	-1.0650424
O	3.7090384	0.0839592	0.3698986
