11
-0.0041656 (energy)
C	-1.3744017	-0.0510911	-0.1561419
H	-1.8385929	-0.9005738	0.3306700
C	-2.0456074	0.8712588	-0.8465476
H	-3.1240395	0.7988679	-0.9481234
H	-1.5540069	1.7112085	-1.3234083
O	-0.0221070	-0.0460254	0.0267960
H	0.3508542	0.7304569	-0.4252727
C	3.0463345	0.1034667	-0.0222375
H	2.9163835	-0.1376622	1.0448618
H	3.0706544	-0.7609813	-0.7048019
O	3.1563990	1.2554515	-0.4229315
