11
-0.00385643 (energy)
C	0.0531463	0.0629594	-0.0161083
H	-0.6328033	-0.7496464	0.1917983
C	-0.3209436	1.2520151	-0.4895106
H	-1.3684736	1.4539263	-0.6907231
H	0.3883636	2.0469887	-0.6882137
O	1.3420720	-0.2844388	0.2670487
H	1.9201987	0.4717410	0.0661689
C	4.3168313	-1.6288050	-0.8593928
H	4.1386716	-1.5967449	-1.9461138
H	4.3325559	-2.6347032	-0.4103076
O	4.4860898	-0.6140935	-0.1949750
