11
0 (energy)
C	0.0483457	-0.0004830	0.0686319
H	-0.5756443	0.0057513	-0.8171884
C	0.5486173	1.0974891	0.6361633
H	0.3387613	2.0745978	0.2121435
H	1.1705280	1.0606632	1.5229856
O	0.2555988	-1.2691211	0.5266674
H	0.8182436	-1.2265533	1.3191381
C	4.4149434	0.1375584	0.2106601
H	4.7489257	0.9651567	-0.4353029
H	4.4108452	-0.8591664	-0.2586786
O	4.0712097	0.3137684	1.3727858
