11
0 (energy)
C	-0.0206606	0.0457753	0.0672729
H	0.2460023	-0.5450385	-0.8010070
C	-0.3637002	1.3332733	0.0164861
H	-0.3882718	1.8539859	-0.9357893
H	-0.6258832	1.8995294	0.9025994
O	0.0391873	-0.6925253	1.2133635
H	-0.2068836	-0.1242470	1.9636300
C	3.7589129	0.7961927	1.2427291
H	3.7610430	1.8784486	1.4487605
H	2.8906316	0.4222723	0.6770198
O	4.6614195	0.0581079	1.6174978
