11
0 (energy)
C	0.0274081	0.0524361	0.0595578
H	-0.3263430	-0.6243481	-0.7091445
C	-0.7589944	0.8929177	0.7326613
H	-1.8238456	0.9286313	0.5243579
H	-0.3767256	1.5591785	1.4972199
O	1.3736280	-0.0648421	0.2496384
H	1.6458454	0.5584185	0.9452209
C	5.3117527	1.5106025	0.4537560
H	6.0869215	1.8925671	-0.2295798
H	4.4372995	1.0481408	-0.0312352
O	5.4151918	1.5944694	1.6711326
