11
0 (energy)
C	-1.3718387	-0.3408024	-0.0476369
H	-1.8641631	-0.9716876	0.6828976
C	-0.0786934	-0.0186500	-0.0040554
H	0.5499362	-0.3931669	0.7979021
H	0.3870522	0.6152296	-0.7496158
O	-2.2400105	0.0796273	-1.0128880
H	-1.7568484	0.6404652	-1.6440824
C	3.6989023	0.1759391	0.1099682
H	3.3143951	-0.0119547	-0.9052074
H	3.6365153	-0.6754139	0.8064321
O	4.1645626	1.2588079	0.4420743
