11
0 (energy)
C	-0.1325610	-0.7762096	1.1748546
H	-0.5063077	-1.7931618	1.1890556
C	-0.0070273	-0.0432197	0.0681145
H	-0.2866347	-0.4580135	-0.8953893
H	0.3703076	0.9726233	0.0843614
O	0.1915106	-0.3438935	2.4279601
H	0.5209145	0.5694541	2.3672957
C	3.8421226	-0.3877581	0.2908037
H	3.4907083	-0.6911871	-0.7082810
H	3.0682442	-0.3457743	1.0738142
O	5.0146530	-0.1153362	0.5159652
