11
0 (energy)
C	0.8118745	0.4871950	1.0506464
H	0.5174558	0.4852093	2.0934281
C	0.0476082	0.0282602	0.0590909
H	-0.9356709	-0.3795073	0.2723088
H	0.3688088	0.0430180	-0.9758946
O	2.0583441	1.0166891	0.8828887
H	2.2801134	0.9983423	-0.0641450
C	2.4611788	-3.0691033	0.3867729
H	3.5278252	-3.3257754	0.4873522
H	2.2442127	-2.1634898	-0.2019084
O	1.5758164	-3.7452791	0.8953578
