11
0 (energy)
C	0.7891618	-0.3034972	-1.1337858
H	0.9888051	-1.3107027	-1.4798489
C	0.0454170	-0.0158205	-0.0651454
H	-0.4034101	-0.8140800	0.5178724
H	-0.1373629	1.0024520	0.2578023
O	1.3931115	0.6279719	-1.9273871
H	1.1875835	1.5134230	-1.5807957
C	3.6573889	0.1733761	0.9586463
H	3.3236455	-0.7219077	0.4101816
H	4.0748493	0.9822431	0.3379879
O	3.5701617	0.2634370	2.1768496
