11
0 (energy)
C	1.0448257	-0.5325727	0.7906091
H	0.9179533	-0.8721700	1.8117150
C	0.0608226	-0.0302874	0.0440476
H	-0.9416092	0.0588368	0.4511852
H	0.2174044	0.3017898	-0.9756531
O	2.3337242	-0.6839152	0.3686743
H	2.4006800	-0.3676783	-0.5488779
C	5.7355645	0.2593353	0.5479874
H	5.3800736	-0.4381001	-0.2272167
H	5.9228062	1.2907241	0.2089686
O	5.9108795	-0.0886217	1.7089910
