11
0 (energy)
C	1.1481540	0.3985168	0.7233836
H	2.1438812	0.0135981	0.5377902
C	0.0648295	0.0237941	0.0422835
H	0.1477511	-0.7097087	-0.7537513
H	-0.9196644	0.4263960	0.2502888
O	1.1447261	1.3110412	1.7380169
H	0.2344629	1.6282667	1.8690890
C	3.1074060	3.5500133	3.4822241
H	4.0726494	3.0498489	3.6607517
H	3.1511577	4.4582126	2.8601182
O	2.0560437	3.1248598	3.9444153
