11
0 (energy)
C	1.3834429	-0.0015441	0.0453209
H	1.8087547	0.9087413	0.4509938
C	2.1067952	-1.0390443	-0.3768894
H	3.1906939	-1.0049040	-0.3261766
H	1.6533626	-1.9377513	-0.7785202
O	0.0199746	0.0494472	0.0219335
H	-0.3170114	-0.7847627	-0.3481008
C	4.4386628	-0.5191148	2.8573059
H	5.0692686	-0.4913491	1.9543681
H	3.3617717	-0.6694106	2.6799008
O	4.9036689	-0.3914449	3.9830096
