11
0 (energy)
C	-0.5095628	0.9081971	-0.9118633
H	0.1808857	1.1640122	-1.7067969
C	-1.7402289	1.4096870	-0.8028889
H	-2.1065814	2.1203326	-1.5372882
H	-2.4095797	1.1351170	0.0040581
O	0.0386546	0.0118415	-0.0411180
H	-0.6134769	-0.1879331	0.6525718
C	1.7167773	3.1730668	1.7187964
H	2.8125339	3.2872984	1.7185520
H	1.3470567	2.1402356	1.6171977
O	0.9602486	4.1302197	1.8249167
