11
0 (energy)
C	0.8066105	0.6600528	0.9108680
H	0.6168797	1.7251265	0.9716983
C	1.7265878	0.0238050	1.6366345
H	2.3415613	0.5744061	2.3417726
H	1.8943760	-1.0437553	1.5545083
O	-0.0121296	0.0563596	0.0012460
H	0.1925052	-0.8944683	-0.0197746
C	3.7019078	2.1544572	-1.2830317
H	4.3133718	2.0983736	-0.3683198
H	2.6843827	1.7403093	-1.2000853
O	4.1250004	2.6444287	-2.3225794
