11
0 (energy)
C	0.4562916	1.3044467	0.0786613
H	-0.1017579	1.9218956	0.7725041
C	1.4897560	1.7401466	-0.6424652
H	1.8201461	2.7705536	-0.5548438
H	2.0296758	1.0989270	-1.3294199
O	-0.0313424	0.0305893	0.0375105
H	0.4974264	-0.4854736	-0.5953193
C	5.3303918	2.0266029	0.0574353
H	4.5026251	2.3397351	0.7135465
H	5.0432666	1.4039158	-0.8048730
O	6.4920924	2.3491471	0.2722740
