11
0 (energy)
C	0.4624310	-0.9365173	0.9083302
H	0.0702523	-1.9335535	0.7464819
C	1.3124477	-0.6190135	1.8853508
H	1.6540128	-1.3802790	2.5798880
H	1.6884504	0.3880700	2.0231457
O	-0.0223465	-0.0520395	-0.0108449
H	0.3546549	0.8259046	0.1721169
C	4.6720826	0.3146634	1.0550010
H	4.3746634	1.1070422	0.3497288
H	4.2386077	-0.6796845	0.8623159
O	5.4336612	0.5250949	1.9906588
