11
0 (energy)
C	-0.9966299	-0.3924454	-0.8767475
H	-1.9212554	-0.6770828	-0.3887625
C	-0.8140157	-0.4109784	-2.1974348
H	-1.6188504	-0.7248163	-2.8549458
H	0.1230316	-0.1204457	-2.6579950
O	-0.0479706	-0.0145726	0.0284877
H	0.7613282	0.2312782	-0.4521199
C	2.7359124	1.9530280	1.3116608
H	3.4552852	2.1253875	0.4952501
H	2.7115004	0.9278757	1.7144296
O	2.0117716	2.8416118	1.7426802
