11
0 (energy)
C	-0.0477556	-0.7190292	1.1818152
H	0.4937021	-1.6568846	1.1453346
C	-0.7057634	-0.2790653	2.2548315
H	-0.7215931	-0.8702316	3.1652411
H	-1.2392027	0.6643173	2.2622203
O	0.0295193	-0.0493159	-0.0046525
H	-0.4684919	0.7826787	0.0738391
C	3.0479628	0.1512178	-1.2292554
H	3.1829409	1.1387226	-1.6986661
H	2.9336269	-0.6942137	-1.9263413
O	3.0264543	0.0031634	-0.0137900
