11
0 (energy)
C	-0.5504381	-0.8914088	-0.9046431
H	0.1214962	-1.6900826	-1.1956836
C	-1.7957058	-0.7603244	-1.3629350
H	-2.1943141	-1.4790873	-2.0722058
H	-2.4457871	0.0498199	-1.0536723
O	0.0377414	-0.0413674	-0.0137629
H	-0.5989833	0.6565299	0.2184267
C	3.8894759	-0.4753731	0.8651376
H	4.2538428	0.1100760	1.7243334
H	4.3472274	-1.4695946	0.7396664
O	3.0328432	-0.0494550	0.1006031
