11
0 (energy)
C	1.3612461	0.0214457	-0.2500399
H	1.8534741	-0.9274348	-0.0727899
C	1.9890560	1.1202479	-0.6700338
H	3.0584261	1.0999646	-0.8560714
H	1.4700937	2.0565807	-0.8389769
O	0.0236593	-0.0515892	0.0101919
H	-0.3754906	0.8187585	-0.1617529
C	4.1455527	-2.2941879	2.1533593
H	3.3521283	-1.8551354	2.7790126
H	3.8029736	-2.7918486	1.2320943
O	5.3292511	-2.2331255	2.4613663
