11
0 (energy)
C	-1.3486187	-0.2587115	0.1739731
H	-1.9867790	0.2473913	-0.5406536
C	-1.7992967	-1.0605981	1.1392575
H	-2.8645884	-1.2405622	1.2457486
H	-1.1365576	-1.5540155	1.8406125
O	-0.0316146	0.0280740	-0.0392104
H	0.5017466	-0.4455551	0.6222972
C	1.3339668	0.2878544	-2.9261213
H	1.5800222	1.1608024	-2.3007016
H	2.1399717	-0.4538604	-3.0443209
O	0.2377441	0.1510963	-3.4546398
