11
0.00230041 (energy)
C	-0.3834619	-0.8429844	1.0287395
H	0.2502211	-0.7795556	1.9053824
C	-1.4394520	-1.6509429	0.9287679
H	-1.7107151	-2.2988829	1.7565142
H	-2.0558109	-1.6931494	0.0383168
O	0.0352860	0.0053515	0.0452918
H	-0.5600145	-0.0849319	-0.7188137
C	2.6331319	2.9911900	-0.2657279
H	2.9016237	2.9701329	0.8025418
H	3.3186892	3.5570738	-0.9165295
O	1.6390359	2.4234940	-0.7007374
