11
0.00306798 (energy)
C	-0.8967000	-0.9541771	-0.4488272
H	-0.8852684	-1.0939734	-1.5232603
C	-1.6923548	-1.6278591	0.3824324
H	-2.3837571	-2.3694772	-0.0055616
H	-1.6819220	-1.4667188	1.4541169
O	0.0026485	-0.0054373	-0.0573455
H	-0.0420343	0.0862936	0.9101150
C	1.6547722	2.8132058	0.7756944
H	0.9137045	3.3846250	1.3570980
H	2.5425025	2.4789639	1.3360273
O	1.5019657	2.5660615	-0.4139731
