11
0.00307299 (energy)
C	-0.3241396	0.6081616	-1.2350830
H	0.0593963	1.5697415	-1.5549964
C	-0.0194782	0.0335713	-0.0710667
H	0.6506456	0.5305227	0.6235894
H	-0.4187218	-0.9302508	0.2225899
O	-1.1544791	0.0633218	-2.1709670
H	-1.4735405	-0.7951314	-1.8428683
C	1.0350754	1.3748710	-5.0186876
H	1.1738252	2.3435769	-5.5247395
H	1.9591181	0.8787068	-4.6814605
O	-0.0723274	0.8824795	-4.8427657
