11
0.00328231 (energy)
C	-0.8094228	-0.7568731	-0.8294266
H	-0.3388284	-1.6632854	-1.1914180
C	-2.0515537	-0.3857298	-1.1413082
H	-2.6577956	-1.0048739	-1.7952999
H	-2.4965738	0.5275279	-0.7638163
O	0.0273906	-0.0475235	-0.0177867
H	-0.4347083	0.7542315	0.2822877
C	3.7121402	0.7674432	-0.9414555
H	4.7939414	0.7332315	-0.7358666
H	3.3527260	1.6803569	-1.4426201
O	2.9594140	-0.1481403	-0.6334799
