11
0 (energy)
C	0.0153544	0.0554868	0.0611010
H	-0.1828219	-0.6606721	-0.7275197
C	-0.1978167	-0.1826939	1.3556027
H	-0.5933575	-1.1416517	1.6757919
H	0.0100215	0.5536228	2.1232119
O	0.5084172	1.2261906	-0.4374315
H	0.6708337	1.8364401	0.3025735
C	4.5116285	1.7829247	1.5848899
H	5.4108864	1.4098829	1.0692287
H	3.5553769	1.5851053	1.0747857
O	4.5709982	2.3777508	2.6537192
