11
-0.00288948 (energy)
C	-0.0079890	0.0834849	-0.0037850
H	0.0951233	-0.9940407	0.0450668
C	-1.0723015	0.7086888	-0.5080324
H	-1.9053848	0.1353122	-0.9027289
H	-1.1478236	1.7892435	-0.5438160
O	1.0850086	0.7154597	0.5140541
H	0.9491538	1.6765992	0.4496701
C	3.9932685	0.1250942	0.0782164
H	4.0330981	-0.6998608	0.8073214
H	3.8731010	-0.1769783	-0.9744316
O	4.0769751	1.2994403	0.4153265
