11
0 (energy)
C	-0.0425592	-0.0569942	0.0445898
H	0.5067455	0.6786203	-0.5309236
C	-1.3118640	0.0903415	0.4254626
H	-1.8598725	0.9893250	0.1607190
H	-1.8363292	-0.6632749	1.0012935
O	0.7268513	-1.1477527	0.3282205
H	0.1953511	-1.7788183	0.8436375
C	3.5890399	1.9561517	-0.1341188
H	3.3072234	2.6943981	0.6335419
H	3.4223925	0.9015412	0.1375084
O	4.0563296	2.2857811	-1.2170425
