31
-0.00385057 (energy)
C	-0.4239107	0.1992856	0.1014955
O	-0.6030607	-0.7121059	-0.6932317
O	0.8643541	0.4843631	0.5437530
H	0.9005180	1.2415828	1.1638451
N	-2.8170350	0.9681291	0.1019826
C	-4.2530017	0.9239584	-1.8402791
H	-4.9964947	0.2909427	-1.3729541
H	-4.4565730	1.2435969	-2.8541364
C	-3.1012482	1.2885406	-1.2331587
C	-2.0640721	2.1206787	-1.9558795
H	-1.1352336	1.5615696	-2.1180259
H	-2.4442805	2.4151055	-2.9362379
H	-1.8185620	3.0366542	-1.4023507
C	-3.2794253	0.6763848	2.3908882
C	-3.8173676	0.3572097	0.9871666
C	-1.5087291	1.0819212	0.7317546
C	-1.7483980	0.6151132	2.2106616
H	-3.5899279	1.6846690	2.6874093
H	-3.6329245	-0.0261057	3.1513305
H	-4.7971167	0.8087952	0.7994093
H	-3.9070358	-0.7276584	0.8197408
H	-1.1470818	2.1231352	0.7086787
H	-1.3981709	-0.4160797	2.3337600
H	-1.2077860	1.2392090	2.9286399
C	2.4257110	-2.2417667	-2.1615015
H	1.9459612	-3.0603443	-1.5919809
O	2.3634651	-2.2263738	-3.3959652
C	3.1256945	-1.2017221	-1.3324005
H	3.9094074	-1.6700719	-0.7220813
H	3.5679618	-0.4360387	-1.9732635
H	2.4172988	-0.7352703	-0.6349684
