31
-0.00297001 (energy)
C	-0.4308738	-0.7701088	-2.3536025
O	-0.8878252	0.2976098	-2.7350379
O	-0.2497915	-1.8066213	-3.2642824
H	0.1367124	-2.6111387	-2.8610825
N	0.0000000	0.0000000	0.0000000
C	0.7058269	2.2352458	0.5846508
H	-0.1441155	2.4190683	1.2293916
H	1.4328903	3.0327606	0.5017922
C	0.8671411	1.0949087	-0.1236291
C	2.0404536	0.9152376	-1.0625484
H	1.7177442	0.8457882	-2.1078573
H	2.7116445	1.7729091	-0.9834877
H	2.6191966	0.0132043	-0.8236492
C	-1.3574474	-1.5535599	1.1321646
C	-1.0490890	-0.0517317	1.0267300
C	-0.0541402	-1.1343431	-0.9118992
C	-1.1705837	-2.0603115	-0.3130223
H	-0.6365146	-2.0347203	1.8027720
H	-2.3631797	-1.7552180	1.5123797
H	-0.6655930	0.3657573	1.9635993
H	-1.9382333	0.5295898	0.7360437
H	0.9121647	-1.6641861	-0.9430286
H	-2.1005546	-1.9303990	-0.8782195
H	-0.8944310	-3.1178894	-0.3632036
C	3.1433119	-2.0650887	-2.7773346
H	3.0506832	-1.0989713	-3.3089546
O	3.3892183	-2.0848398	-1.5660741
C	2.9512143	-3.2905874	-3.6260569
H	3.6846182	-3.3025825	-4.4433828
H	3.0592852	-4.1943168	-3.0225914
H	1.9572165	-3.2748499	-4.0924624
