31
-0.00272334 (energy)
C	2.7654761	0.7549133	1.2837646
O	3.2274282	0.4967773	0.1818179
O	3.2220676	1.8712784	1.9778394
H	2.7767299	1.9975647	2.8409325
N	1.0558565	-1.0873474	1.2458022
C	-0.1081564	-1.8125542	-0.7430369
H	0.2366153	-2.8358379	-0.6661835
H	-0.7651617	-1.5833400	-1.5720854
C	0.2687853	-0.8361633	0.1128995
C	-0.1896434	0.5934203	-0.0785354
H	0.6477734	1.2610673	-0.3122356
H	-0.8935476	0.6472977	-0.9115806
H	-0.6965549	0.9819338	0.8146490
C	1.7670344	-2.2661516	3.1543762
C	1.3903385	-2.4513346	1.6760337
C	1.7213250	-0.0695672	2.0473637
C	2.4430155	-0.8795692	3.1811964
H	0.8610914	-2.2623623	3.7710014
H	2.4286393	-3.0540110	3.5262413
H	0.5195033	-3.1015610	1.5420853
H	2.2220733	-2.8748169	1.0913196
H	0.9912146	0.6343209	2.4797158
H	3.5084188	-0.9780990	2.9437546
H	2.3621001	-0.3828859	4.1527971
C	4.1817819	-3.2772087	-2.3463644
H	3.3709615	-4.0297114	-2.3762454
O	5.2916930	-3.5429336	-2.8212326
C	3.8230596	-1.9660059	-1.7051595
H	3.4982037	-2.1288636	-0.6688233
H	4.6781529	-1.2868964	-1.7193903
H	2.9775475	-1.5060419	-2.2337006
