31
-0.00389579 (energy)
C	0.3971830	-0.1926452	-0.1866810
O	-0.4100531	-1.0876093	0.0175971
O	0.0626927	1.1213921	0.1262232
H	0.7836713	1.7576361	-0.0597526
N	2.2495408	-1.7261050	-0.9184162
C	2.6377678	-3.9205002	0.0144511
H	2.5399132	-4.4278470	-0.9368150
H	2.8596954	-4.5400872	0.8737395
C	2.4641327	-2.5882703	0.1663254
C	2.5465637	-1.9379988	1.5304608
H	1.5809138	-1.5232826	1.8421755
H	2.8403454	-2.6796119	2.2761487
H	3.2882571	-1.1286111	1.5519750
C	2.5761305	-0.8728042	-3.0871083
C	2.3617904	-2.1814024	-2.3103726
C	1.7871451	-0.3487747	-0.8165480
C	1.7312572	0.1523621	-2.3025680
H	3.6359076	-0.5949534	-3.0617098
H	2.2681062	-0.9448778	-4.1343205
H	3.2085723	-2.8694214	-2.4035427
H	1.4561965	-2.7121160	-2.6439193
H	2.4908699	0.2629699	-0.2283407
H	0.6951836	0.1346989	-2.6595142
H	2.1011951	1.1772917	-2.4021409
C	4.5600079	2.5262292	-0.9100133
H	3.7801994	2.5749301	-1.6936649
O	4.3530222	1.8939075	0.1317824
C	5.8320267	3.2654941	-1.2174765
H	5.6182602	4.3285100	-1.3916830
H	6.5418268	3.1639853	-0.3937918
H	6.2806695	2.8769508	-2.1413635
