31
-0.00412713 (energy)
C	-0.4535242	-0.9766677	2.9506337
O	0.5595063	-1.6378990	2.7749554
O	-0.6405276	-0.3104210	4.1579580
H	-1.4740441	0.2028205	4.1901610
N	-1.3357832	-1.2968797	0.6188430
C	0.0583257	-1.4222334	-1.3501869
H	-0.2975933	-2.4040785	-1.6351172
H	0.7886580	-0.9628411	-2.0037081
C	-0.3394449	-0.7862392	-0.2253129
C	0.2396250	0.5575352	0.1612901
H	0.8261905	0.4968052	1.0853507
H	0.9064543	0.9130784	-0.6269204
H	-0.5441063	1.3132560	0.3038791
C	-3.3755641	-2.3407651	1.1551316
C	-2.1352680	-2.4749510	0.2577193
C	-1.6191913	-0.8206985	1.9657494
C	-2.8159668	-1.7134019	2.4487879
H	-4.1022383	-1.6675295	0.6864396
H	-3.8701777	-3.2983650	1.3424467
H	-2.3815408	-2.4376245	-0.8086048
H	-1.5923736	-3.4143341	0.4470229
H	-1.9089929	0.2429695	1.9571846
H	-2.4444160	-2.4998193	3.1156227
H	-3.5618581	-1.1330305	3.0002086
C	3.6166605	-0.9190871	1.7379525
H	3.6544159	-1.8753802	1.1823799
O	3.0777490	0.0712206	1.2311221
C	4.2515741	-0.9377536	3.1001618
H	5.3097147	-1.2204394	3.0196991
H	4.1685360	0.0425841	3.5741022
H	3.7683874	-1.6951369	3.7316002
