31
-0.0025202 (energy)
C	-2.7279357	-1.4387615	-0.5950928
O	-2.4729609	-1.2063913	-1.7678300
O	-3.2515134	-2.6771431	-0.2362555
H	-3.4039294	-2.7669648	0.7270228
N	-1.8003752	0.7317890	0.2689133
C	0.1331806	1.8425970	-0.6604951
H	-0.4023163	2.7563002	-0.8847114
H	1.1876319	1.8264337	-0.9041909
C	-0.4579227	0.7456989	-0.1356494
C	0.3231737	-0.5295822	0.0968585
H	-0.0303848	-1.3454880	-0.5441792
H	1.3774186	-0.3645962	-0.1348643
H	0.2573999	-0.8631804	1.1409209
C	-3.7571471	1.5784733	1.2649945
C	-2.6163405	1.9525626	0.3056684
C	-2.5705599	-0.4647086	0.5794526
C	-3.9863436	0.0792097	0.9822259
H	-3.4347771	1.7275908	2.3017274
H	-4.6617888	2.1713582	1.1011715
H	-2.0112840	2.7865157	0.6765045
H	-2.9934066	2.2255670	-0.6924801
H	-2.1176662	-1.0213302	1.4164160
H	-4.6807310	-0.0413284	0.1429002
H	-4.4020339	-0.4591480	1.8393269
C	3.8353719	-1.0788303	-1.7805345
H	3.7884062	-2.0296086	-1.2162670
O	3.3262203	-0.0544220	-1.3121710
C	4.5421720	-1.1479076	-3.1052005
H	4.0521186	-1.8837224	-3.7567150
H	4.5411341	-0.1696264	-3.5905267
H	5.5764149	-1.4888137	-2.9639990
