31
-0.00209994 (energy)
C	2.9229834	-0.6217575	-0.9671552
O	3.0331137	-1.2196907	0.0933484
O	3.4445205	-1.1801640	-2.1301978
H	3.2886601	-0.6303141	-2.9255445
N	1.5197691	1.2404352	-0.0283302
C	-0.1284127	0.9470071	1.7134300
H	0.3399684	1.6561168	2.3840013
H	-1.0390598	0.4779029	2.0629722
C	0.3866733	0.6130177	0.5087769
C	-0.2728643	-0.4344413	-0.3620579
H	0.3608405	-1.3207538	-0.4824892
H	-1.2083559	-0.7608432	0.0969251
H	-0.5075887	-0.0446815	-1.3613937
C	2.9393556	3.0448840	-0.5448063
C	2.1319093	2.4173049	0.6023049
C	2.2836642	0.7577353	-1.1705608
C	3.4209905	1.8231678	-1.3545703
H	2.2857838	3.6764838	-1.1570965
H	3.7727379	3.6591595	-0.1914419
H	1.3466038	3.0822055	0.9768617
H	2.7750989	2.1406378	1.4524656
H	1.6542009	0.7040481	-2.0740770
H	4.3573556	1.4403440	-0.9328627
H	3.5991205	2.0523742	-2.4095507
C	1.7348095	-5.4841771	-0.3012947
H	1.5258843	-5.8503264	0.7218709
O	1.7444490	-6.2739167	-1.2522051
C	1.9930255	-4.0082004	-0.4191725
H	2.8509786	-3.7239832	0.2046736
H	2.1887818	-3.7361632	-1.4585242
H	1.1288177	-3.4427191	-0.0460918
