31
-0.00242297 (energy)
C	2.7654761	-1.1331720	0.9663678
O	3.2274282	-0.0927912	0.5208025
O	3.2220676	-1.6228474	2.1862978
H	2.7767299	-2.4508988	2.4605400
N	1.0558565	-1.4156916	-0.8544968
C	-0.1081564	0.4170017	-1.9140445
H	0.2366153	0.1636245	-2.9084367
H	-0.7651617	1.2732577	-1.8322753
C	0.2687853	-0.2563825	-0.8038553
C	-0.1896434	0.1803887	0.5707674
H	0.6477734	0.5264741	1.1876897
H	-0.8935476	1.0101337	0.4791695
H	-0.6965549	-0.6317616	1.1084783
C	1.7670344	-3.4999673	-1.6839719
C	1.3903385	-2.0762409	-2.1230530
C	1.7213250	-2.0283399	0.2870107
C	2.4430155	-3.2856025	-0.3137976
H	0.8610914	-4.1065665	-1.5731643
H	2.4286393	-4.0029933	-2.3952882
H	0.5195033	-2.0572381	-2.7866609
H	2.2220733	-1.5739468	-2.6416363
H	0.9912146	-2.3318946	1.0552823
H	3.5084188	-3.0688775	-0.4520618
H	2.3621001	-4.1561943	0.3440568
C	2.2945089	-0.0097340	6.0838417
H	3.2459458	0.3289784	6.5361961
O	1.4142995	-0.5095347	6.7933787
C	2.1797746	0.1859727	4.5980378
H	2.9884162	-0.3497242	4.0830870
H	1.2136024	-0.1743081	4.2384744
H	2.2939366	1.2489410	4.3472812
