31
-0.0110342 (energy)
C	2.2236821	-1.4782667	-0.4777428
O	2.8702174	-1.0497732	-1.4225740
O	2.3060924	-2.8260521	-0.1413358
H	1.7637222	-3.0626254	0.6390944
N	1.3406425	0.7677755	0.2248951
C	2.5975520	2.8250385	0.0693982
H	1.8695356	3.3131563	-0.5659100
H	3.4675220	3.4067997	0.3454827
C	2.4778004	1.5448806	0.4876167
C	3.5577248	0.8885381	1.3203779
H	4.0441535	0.0673562	0.7812279
H	4.3295508	1.6202946	1.5676939
H	3.1596574	0.4893441	2.2626448
C	-0.9602223	0.3250144	0.0058236
C	0.1294743	1.3376901	-0.3798425
C	1.2528134	-0.6757087	0.3977102
C	-0.2182840	-1.0274386	-0.0202315
H	-1.3274208	0.5408154	1.0155606
H	-1.8145120	0.3392077	-0.6773416
H	-0.0546797	2.3331760	0.0375130
H	0.2245871	1.4409605	-1.4722250
H	1.4354818	-0.9610129	1.4468439
H	-0.2252815	-1.4384884	-1.0361843
H	-0.6645652	-1.7731133	0.6446384
C	0.1725294	-4.9639679	3.0031190
H	0.1347740	-4.2507771	3.8484096
O	0.7114408	-4.6368026	1.9398460
C	-0.4623842	-6.3022408	3.2580472
H	-1.5205247	-6.1739126	3.5224662
H	-0.3793461	-6.9392149	2.3749020
H	0.0208026	-6.7925679	4.1135723
