31
-0.00226901 (energy)
C	4.2760411	-0.8887246	-0.7289704
O	3.6749687	-1.9531022	-0.7174466
O	5.5198450	-0.8066684	-1.3476024
H	5.9079807	0.0919579	-1.3155847
N	2.4264719	0.4233998	0.3552748
C	0.0757243	0.0170589	-0.0257830
H	-0.1416776	-0.1671019	1.0185851
H	-0.7599589	-0.0360152	-0.7115915
C	1.3197512	0.2688396	-0.4916747
C	1.5797223	0.4534897	-1.9711452
H	2.2070626	-0.3486513	-2.3769151
H	0.6342633	0.4376144	-2.5172254
H	2.0727631	1.4117198	-2.1818253
C	3.5925291	1.1669163	2.2593499
C	2.2874767	0.4871592	1.8161148
C	3.8181960	0.4206890	-0.0740528
C	4.6326297	0.6392799	1.2493642
H	3.4927413	2.2548322	2.1730067
H	3.8650515	0.9309734	3.2922050
H	1.3992006	1.0731606	2.0742976
H	2.1745265	-0.5132605	2.2626722
H	4.0141703	1.2374859	-0.7881151
H	5.0382459	-0.3181440	1.5957541
H	5.4730304	1.3245799	1.1032813
C	-1.9362444	1.7003524	-4.1640106
H	-2.0811320	2.6168872	-3.5610560
O	-1.3181868	0.7394168	-3.6921848
C	-2.5328873	1.7332217	-5.5431462
H	-2.1077997	2.5663536	-6.1186796
H	-2.3431001	0.7925001	-6.0642991
H	-3.6149985	1.9097017	-5.4822908
