31
-0.00633829 (energy)
C	2.2893993	1.2386994	-0.7632480
O	2.5551927	2.1981735	-0.0539640
O	2.7512848	1.2031345	-2.0754537
H	2.4981080	0.3854734	-2.5514111
N	1.1499223	-0.0725186	1.0534699
C	1.8380087	-0.0561766	3.3691992
H	0.8801338	0.2936389	3.7325010
H	2.5999500	-0.2441264	4.1146098
C	2.1164913	-0.2277536	2.0573074
C	3.4937684	-0.6553895	1.5982335
H	3.9901369	0.1295573	1.0159002
H	4.1229711	-0.8672227	2.4651699
H	3.4543451	-1.5636075	0.9823875
C	-0.9722412	-0.2812002	0.0580393
C	-0.2719399	0.1256372	1.3640831
C	1.4300127	0.0297412	-0.3721239
C	0.0154580	0.1753485	-1.0357129
H	-1.1001842	-1.3691903	0.0283419
H	-1.9571224	0.1806684	-0.0577773
H	-0.5544938	-0.5111390	2.2089321
H	-0.4914738	1.1693893	1.6386687
H	1.9392637	-0.8754887	-0.7418134
H	-0.1669321	1.2257794	-1.2896810
H	-0.0657776	-0.4097247	-1.9567665
C	4.4598269	0.4141104	-4.5255543
H	3.9800771	1.4072580	-4.4356606
O	4.3975811	-0.3911793	-3.5897947
C	5.1598102	0.1503260	-5.8292104
H	5.9435230	0.9014084	-5.9956925
H	5.6020774	-0.8481603	-5.8304528
H	4.4514143	0.2413039	-6.6633037
