31
-0.00168628 (energy)
C	-1.4139639	-2.7902313	-0.2848135
O	-0.5613677	-3.0169316	-1.1309855
O	-1.7595399	-3.7821942	0.6279152
H	-2.4383923	-3.4938403	1.2722871
N	-1.7024783	-0.3706886	-0.9018525
C	0.0958880	1.0591573	-1.6486800
H	-0.3797689	1.2962479	-2.5917717
H	1.0543959	1.5246306	-1.4586437
C	-0.4327930	0.2032844	-0.7453365
C	0.3054874	-0.1452654	0.5290137
H	0.6012212	-1.2005634	0.5518813
H	1.2167802	0.4517249	0.6031514
H	-0.3021954	0.0580154	1.4206857
C	-3.9892487	-0.4194184	-1.4553096
C	-2.6181276	0.0422861	-1.9735226
C	-2.2170012	-1.4925975	-0.1286694
C	-3.6644171	-1.7195362	-0.6908107
H	-4.4012922	0.3329456	-0.7732962
H	-4.7136353	-0.5840275	-2.2583632
H	-2.5619624	1.1279221	-2.1051678
H	-2.3640916	-0.4289579	-2.9360222
H	-2.2532382	-1.2496714	0.9460965
H	-3.6628771	-2.5697726	-1.3823790
H	-4.3822069	-1.9382896	0.1055400
C	3.9295744	2.2500722	-2.4987101
H	4.9889386	1.9684804	-2.6504880
O	3.3246031	1.8665354	-1.4912770
C	3.3259053	3.1011956	-3.5804913
H	3.3845799	2.5819171	-4.5463868
H	2.2834145	3.3303100	-3.3496317
H	3.8940357	4.0347729	-3.6876111
