31
-0.00611424 (energy)
C	0.9615017	-1.4395054	-2.0884472
O	0.0897387	-1.7185862	-2.8986716
O	2.0827779	-2.2557307	-1.9744174
H	2.7271141	-1.9353054	-1.3100664
N	-0.0835565	0.7327098	-1.3760574
C	-1.2848974	2.2087131	-2.8641858
H	-2.1995863	2.1742648	-2.2862229
H	-1.2938165	2.8318316	-3.7491493
C	-0.1798169	1.4968809	-2.5477312
C	1.0514298	1.5293818	-3.4272131
H	1.2489854	0.5537610	-3.8863113
H	0.9088148	2.2489114	-4.2360928
H	1.9458571	1.8292590	-2.8652932
C	-0.3680889	0.2527189	0.9101313
C	-1.1108602	0.7805720	-0.3273464
C	0.9453225	-0.2619798	-1.1054542
C	0.5972240	-0.8000682	0.3269582
H	0.1932932	1.0670785	1.3819811
H	-1.0408037	-0.1755384	1.6589820
H	-1.4581473	1.8114294	-0.2015877
H	-1.9838169	0.1575118	-0.5778523
H	1.9491198	0.1938346	-1.1139440
H	0.0897711	-1.7679924	0.2445861
H	1.4933390	-0.9439179	0.9381333
C	3.4295977	3.0072718	-0.7044035
H	2.8553276	3.3763609	0.1665557
O	3.5818479	1.7927185	-0.8767183
C	3.9797751	4.0705529	-1.6131477
H	4.6442560	4.7405732	-1.0513782
H	4.5292558	3.6185649	-2.4416129
H	3.1632970	4.6906467	-2.0064167
