31
-0.00149679 (energy)
C	-3.2838891	2.4975577	1.6074933
O	-3.2688906	1.4539649	2.2438969
O	-3.8981777	3.6240814	2.1460847
H	-3.8399818	4.4101523	1.5647849
N	-1.8587853	1.6319875	-0.2734724
C	-0.0382642	0.0704990	0.0159901
H	-0.4620665	-0.6679010	-0.6526209
H	0.9176720	-0.1715183	0.4622299
C	-0.6578074	1.2308231	0.3288250
C	-0.0521668	2.1993566	1.3216270
H	-0.6643600	2.2900042	2.2264131
H	0.9344294	1.8456817	1.6280419
H	0.0697994	3.2018342	0.8905317
C	-3.3824079	1.9417290	-2.0400066
C	-2.4452883	0.9022251	-1.4052407
C	-2.7146252	2.7114960	0.1992062
C	-3.8998569	2.7450316	-0.8287132
H	-2.8139496	2.5910945	-2.7153978
H	-4.1972399	1.4868318	-2.6108344
H	-1.6498379	0.5816553	-2.0861109
H	-2.9919994	0.0042952	-1.0768512
H	-2.1756625	3.6732480	0.1995049
H	-4.7767251	2.2486419	-0.3975863
H	-4.1885598	3.7686189	-1.0859471
C	3.3995872	2.8580479	0.0929163
H	3.3037598	3.2311276	-0.9444899
O	3.2815052	3.6373581	1.0451475
C	3.6734618	1.3863333	0.2275527
H	4.6041602	1.1261990	-0.2941535
H	3.7523333	1.1069002	1.2802982
H	2.8708438	0.8077860	-0.2487883
