31
-0.00159926 (energy)
C	0.5616173	-1.1484597	-2.8690468
O	1.6128956	-0.5290033	-2.7955074
O	0.5557418	-2.4348874	-3.3996655
H	-0.3319045	-2.8487529	-3.3979167
N	-0.8079729	0.5956829	-1.6856815
C	0.0137284	1.9573774	0.1328144
H	-0.1795235	2.8926641	-0.3768678
H	0.4277963	2.0255378	1.1305210
C	-0.2051546	0.7471226	-0.4288126
C	0.1448602	-0.5307720	0.3026164
H	0.9515091	-1.0782248	-0.1986303
H	0.4867967	-0.2964820	1.3128321
H	-0.7203900	-1.2013423	0.3883949
C	-2.3547366	1.0506260	-3.3999035
C	-1.3948637	1.7302638	-2.4107496
C	-0.8260831	-0.6348677	-2.4645542
C	-1.6278692	-0.2615083	-3.7608021
H	-3.3083939	0.8361669	-2.9044049
H	-2.5599195	1.6637863	-4.2823215
H	-1.9138702	2.3870899	-1.7048443
H	-0.6285919	2.3281911	-2.9287470
H	-1.3344950	-1.4441793	-1.9150271
H	-0.9311223	-0.0877107	-4.5887569
H	-2.3118967	-1.0605450	-4.0622926
C	4.2336471	-2.0135822	-0.2572325
H	5.0021576	-1.2962409	-0.6027698
O	3.1549933	-1.6014681	0.1839931
C	4.6074838	-3.4650147	-0.3697843
H	5.5181122	-3.6664263	0.2100743
H	3.7945490	-4.0983018	-0.0083134
H	4.8348115	-3.7164677	-1.4142492
