31
-0.00073428 (energy)
C	0.7551692	0.3594513	-4.3481342
O	1.3332624	-0.6433899	-3.9551477
O	0.4525101	0.4950725	-5.6996116
H	-0.0247868	1.3248674	-5.9065698
N	0.4213526	1.3366710	-2.0564596
C	-0.0171001	0.0240363	-0.0762875
H	0.8496044	0.3945193	0.4561118
H	-0.6459963	-0.6807155	0.4522303
C	-0.3119317	0.3736970	-1.3486331
C	-1.4997979	-0.2250930	-2.0703932
H	-1.1892038	-0.8484637	-2.9169011
H	-2.0658921	-0.8605804	-1.3862579
H	-2.1797016	0.5496644	-2.4487611
C	1.5896206	3.3565056	-2.3621173
C	1.4589225	2.1541029	-1.4140482
C	0.3408514	1.5635915	-3.4928621
C	1.3422979	2.7427727	-3.7558331
H	0.8184798	4.0993341	-2.1286190
H	2.5654933	3.8463246	-2.2952079
H	1.1284978	2.4433142	-0.4109197
H	2.4094825	1.6071324	-1.3127097
H	-0.6808617	1.8499279	-3.7921306
H	2.2801218	2.3471132	-4.1621716
H	0.9442159	3.4637213	-4.4762589
C	-0.1763811	1.8130906	3.9378213
H	-1.0287485	1.1313199	3.7554994
O	-0.3800191	2.9736242	4.3115933
C	1.1853152	1.2230941	3.6995667
H	1.2695129	0.8747574	2.6614823
H	1.9631008	1.9621796	3.9029849
H	1.3338218	0.3447003	4.3415818
