31
-0.000630415 (energy)
C	1.9280241	-1.5720857	-0.3597696
O	1.6937033	-1.7616020	-1.5444627
O	3.0666876	-2.1286341	0.2148488
H	3.1701130	-1.9031480	1.1622995
N	0.0000000	0.0000000	0.0000000
C	-0.7849498	1.5789577	-1.6513868
H	-1.7890575	1.1750570	-1.6740905
H	-0.5902104	2.4300752	-2.2910680
C	0.2098697	1.0527542	-0.9020568
C	1.6138345	1.6151765	-0.9575297
H	2.3237205	0.8953282	-1.3812226
H	1.6310497	2.5038941	-1.5917480
H	1.9759710	1.9060169	0.0374322
C	-1.1399150	-1.2162445	1.6611296
C	-1.3447721	-0.4977909	0.3181676
C	1.0510217	-0.7900935	0.6263635
C	0.2797055	-1.8077757	1.5384552
H	-1.1826684	-0.4904631	2.4811219
H	-1.8924685	-1.9875221	1.8496000
H	-2.0391057	0.3455706	0.3938829
H	-1.7249708	-1.1805936	-0.4578737
H	1.7164458	-0.1542070	1.2332465
H	0.2361964	-2.7857949	1.0457521
H	0.7718720	-1.9431727	2.5062824
C	-2.4448174	-5.2945261	-1.3446021
H	-2.5590827	-5.2798094	-2.4451973
O	-3.1936256	-5.9939027	-0.6531031
C	-1.3468228	-4.4261924	-0.7973523
H	-1.5118556	-3.3803023	-1.0887713
H	-1.3062546	-4.5018927	0.2913168
H	-0.3804551	-4.7254257	-1.2244427
