31
-0.00152131 (energy)
C	2.2038589	1.6922876	1.4645723
O	1.6145327	2.6602462	1.0062370
O	2.6663259	1.7251696	2.7766432
H	3.1086345	0.8953959	3.0505818
N	1.8638294	0.2443805	-0.5617814
C	-0.1218849	0.2862051	-1.9371074
H	0.4161388	0.5347668	-2.8429943
H	-1.1929581	0.1599119	-2.0285882
C	0.4739400	0.1659155	-0.7293928
C	-0.3345036	-0.1176303	0.5182186
H	-0.3037356	0.7220868	1.2221815
H	-1.3803444	-0.2827535	0.2511987
H	0.0238351	-1.0142559	1.0410343
C	4.1217711	-0.1517160	-1.0935852
C	2.7852023	0.2978840	-1.7044310
C	2.5474081	0.3987721	0.7149758
C	4.0708848	0.4180645	0.3392585
H	4.1694853	-1.2462861	-1.0688199
H	4.9885589	0.2142700	-1.6516713
H	2.4333736	-0.3782942	-2.4906180
H	2.8506653	1.3103060	-2.1330649
H	2.3257096	-0.4459611	1.3878231
H	4.4395412	1.4501658	0.3447670
H	4.6739969	-0.1556171	1.0494661
C	1.8920387	-3.2670649	-2.2062978
H	1.9284586	-2.5475325	-3.0462559
O	2.0426295	-2.8718626	-1.0447688
C	1.6538356	-4.6998777	-2.5928011
H	2.4429019	-5.0430569	-3.2751861
H	1.6329950	-5.3366793	-1.7058816
H	0.7036258	-4.7915968	-3.1354817
