31
-0.00104615 (energy)
C	-2.1269029	3.8528091	-0.4877526
O	-1.2262141	3.8217071	-1.3136539
O	-3.2048922	4.7124244	-0.6761342
H	-3.8779577	4.6479941	0.0324102
N	-1.2132358	1.9734847	0.9092143
C	-0.0644631	0.0500668	0.0052689
H	0.8396030	0.2248058	0.5744913
H	-0.0720517	-0.8209426	-0.6372275
C	-1.1357145	0.8741408	0.0423368
C	-2.3499906	0.6199314	-0.8245107
H	-2.4863260	1.4077932	-1.5743919
H	-2.2307011	-0.3243146	-1.3597840
H	-3.2696975	0.5537207	-0.2283263
C	-0.9469679	3.1394354	2.9359527
C	-0.2100894	2.2142544	1.9547600
C	-2.1924107	3.0476383	0.8162842
C	-1.8433372	3.9954582	2.0172430
H	-1.5599658	2.5423437	3.6205612
H	-0.2666762	3.7522355	3.5346231
H	0.0791210	1.2618138	2.4111641
H	0.6995421	2.6862433	1.5512657
H	-3.2188034	2.6579575	0.9168571
H	-1.2833759	4.8637851	1.6516988
H	-2.7419372	4.3653470	2.5201843
C	2.9984150	0.2069674	-3.1015574
H	2.0046683	-0.0172658	-3.5337261
O	3.9098818	0.6221940	-3.8260071
C	3.1282636	-0.0296346	-1.6229645
H	2.9053945	-1.0788840	-1.3874824
H	4.1365942	0.2165764	-1.2835146
H	2.3959171	0.5800419	-1.0772756
