31
-0.00152452 (energy)
C	2.5122744	0.0813142	0.0054609
O	2.5849763	1.2151000	-0.4457205
O	3.6727105	-0.5812179	0.3939530
H	3.5034479	-1.4751195	0.7565739
N	0.0000000	0.0000000	0.0000000
C	-1.4164959	1.9004816	0.4669488
H	-1.9274747	1.8527036	-0.4862046
H	-1.7346927	2.6782396	1.1491216
C	-0.4049607	1.0711614	0.8091126
C	0.3207047	1.2234553	2.1284797
H	1.3674810	1.5157110	1.9853667
H	-0.1578950	2.0023625	2.7256346
H	0.3029524	0.2941129	2.7130205
C	-0.2887291	-1.8470921	-1.4292987
C	-0.7505561	-0.3997745	-1.1976161
C	1.2353621	-0.7540458	0.1628523
C	1.1869084	-1.8289996	-0.9793577
H	-0.8724425	-2.5285962	-0.8001687
H	-0.3980195	-2.1666301	-2.4698169
H	-1.8247642	-0.3278914	-0.9976159
H	-0.5229550	0.2459095	-2.0603447
H	1.2748367	-1.2412884	1.1510245
H	1.8276813	-1.5136130	-1.8106894
H	1.5416115	-2.8056346	-0.6364010
C	1.7374259	5.3452521	0.4846007
H	0.7203716	5.3546043	0.9206005
O	2.3111399	6.4094831	0.2271581
C	2.3259808	3.9828403	0.2468709
H	1.6815338	3.4059894	-0.4298698
H	3.3263132	4.0682135	-0.1828072
H	2.3760350	3.4232834	1.1903770
