31
-0.0103478 (energy)
C	2.7279358	-1.4846735	-0.4689504
O	2.4729610	-2.0604884	0.5787831
O	3.2515135	-2.2026728	-1.5398520
H	3.4039294	-1.6522969	-2.3355024
N	1.8003752	0.7334371	0.2643853
C	-0.1331806	0.9869533	1.6903670
H	0.4023163	1.5427672	2.4494437
H	-1.1876319	0.8179269	1.8666593
C	0.4579227	0.4840448	0.5832394
C	-0.3231737	-0.3434241	-0.4146067
H	0.0303849	-1.3804953	-0.4479974
H	-1.3774186	-0.3659861	-0.1310458
H	-0.2573999	0.0721351	-1.4288378
C	3.7571470	2.0223037	0.0455808
C	2.6163404	1.6922298	1.0209272
C	2.5705599	0.0164776	-0.7425954
C	3.9863435	0.6920409	-0.7015138
H	3.4347770	2.8029333	-0.6527519
H	4.6617887	2.3711766	0.5521754
H	2.0112839	2.5694438	1.2729048
H	2.9934066	1.2597660	1.9610372
H	2.1176662	0.1280702	-1.7415360
H	4.6807310	0.0601953	-0.1360334
H	4.4020338	0.8305688	-1.7041410
C	2.2847498	-2.2023098	-4.7068480
H	2.8907355	-2.9994800	-4.2358024
O	1.9315940	-1.2196068	-4.0453438
C	1.9484301	-2.4173066	-6.1558972
H	1.3938776	-3.3571315	-6.2793790
H	1.3515738	-1.5860847	-6.5372231
H	2.8689104	-2.5125076	-6.7470537
