31
-0.00888248 (energy)
C	2.2038589	0.3549586	2.2097090
O	1.6145327	1.3910702	2.4807955
O	2.6663259	-0.4632352	3.2359497
H	3.1086345	-1.2749631	2.9124306
N	1.8638294	0.5483125	-0.2732648
C	-0.1218849	1.4643944	-1.2999413
H	0.4161388	2.2370966	-1.8341185
H	-1.1929581	1.4264509	-1.4511993
C	0.4739400	0.5959432	-0.4520989
C	-0.3345036	-0.4232146	0.3213672
H	-0.3037356	-0.2324525	1.4003938
H	-1.3803444	-0.3780692	0.0106789
H	0.0238351	-1.4461291	0.1455274
C	4.1217711	0.5867218	-0.9352560
C	2.7852023	1.3237795	-1.1141937
C	2.5474081	-0.1541004	0.8040290
C	4.0708848	0.1021848	0.5286138
H	4.1694853	-0.2676864	-1.6198609
H	4.9885589	1.2258142	-1.1275235
H	2.4333736	1.3111482	-2.1510869
H	2.8506653	2.3748603	-0.7917741
H	2.3257096	-1.2337015	0.7764760
H	4.4395412	0.8892795	1.1962555
H	4.6739969	-0.7937934	0.7039089
C	3.7021042	-4.1036480	1.9472244
H	4.6535411	-4.0723488	1.3829806
O	2.8218946	-3.2646971	1.7249532
C	3.5873701	-5.2086244	2.9596182
H	4.3960117	-5.1292607	3.6984328
H	2.6211980	-5.1637564	3.4666439
H	3.7015323	-6.1840886	2.4684461
