31
-0.000439379 (energy)
C	-0.9615016	2.4451529	-0.6745476
O	-0.0897386	3.1797434	-1.1158259
O	-2.0827778	2.9971210	-0.0625363
H	-2.7271140	2.3246245	0.2404208
N	0.0835566	0.3232241	-1.5250979
C	1.2848976	0.1490901	-3.6138270
H	2.1995864	-0.1960283	-3.1489388
H	1.2938167	0.2405970	-4.6922812
C	0.1798171	0.4909722	-2.9138519
C	-1.0514296	1.0313951	-3.6084655
H	-1.2489852	2.0738666	-3.3330383
H	-0.9088146	1.0001411	-4.6906079
H	-1.9458569	0.4404808	-3.3707672
C	0.3680888	-0.7786149	0.5347566
C	1.1108602	-0.3875388	-0.7525038
C	-0.9453225	0.9112604	-0.6784298
C	-0.5972241	0.4027232	0.7647383
H	-0.1932933	-1.7057498	0.3727544
H	1.0408036	-0.9319026	1.3836881
H	1.4581473	-1.2580576	-1.3187892
H	1.9838169	0.2507751	-0.5439071
H	-1.9491198	0.5675434	-0.9779253
H	-0.0897711	1.1971441	1.3238073
H	-1.4933390	0.1200629	1.3253904
C	5.3756536	2.0501732	-3.0730431
H	5.4226192	1.3497245	-3.9284662
O	5.8848052	3.1729919	-3.1627929
C	4.6688536	1.5321997	-1.8518898
H	5.1589070	0.6179290	-1.4913297
H	4.6698916	2.2854923	-1.0612407
H	3.6346107	1.2601465	-2.1011725
