31
-0.000384969 (energy)
C	1.8897561	1.4395051	-1.3095494
O	2.8390515	1.7185859	-0.5917245
O	1.5827513	2.2557303	-2.3939899
H	0.8166054	1.9353051	-2.9131738
N	1.3696613	-0.7327099	-0.1566627
C	3.0437923	-2.2087133	0.7680166
H	2.6334439	-2.1742650	1.7691714
H	3.9168598	-2.8318320	0.6231279
C	2.5402502	-1.4968812	-0.2653236
C	3.1925671	-1.5293823	-1.6305854
H	3.6103854	-0.5537615	-1.9048613
H	4.0139228	-2.2489120	-1.6305974
H	2.4838683	-1.8292595	-2.4138479
C	-0.8323864	-0.2527188	0.5205394
C	0.5152720	-0.7805720	1.0371407
C	0.9245064	0.2619797	-1.1229211
C	-0.4256978	0.8000682	-0.5313752
H	-1.3945508	-1.0670784	0.0496219
H	-1.4530447	0.1755387	1.3130707
H	0.4517295	-1.8114293	1.4009895
H	0.9135595	-0.1575117	1.8533353
H	0.7585596	-0.1938349	-2.1129426
H	-0.2564587	1.7679925	-0.0459355
H	-1.1831964	0.9439179	-1.3077468
C	1.7914326	2.2749523	5.2645125
H	1.7622351	3.3646305	5.0739033
O	1.6355279	1.8421170	6.4118396
C	2.0270499	1.4136402	4.0555030
H	2.9803108	1.6819104	3.5807697
H	2.0403695	0.3580150	4.3348859
H	1.2410564	1.5879486	3.3087473
