31
-0.00697234 (energy)
C	0.9615017	-1.4395051	-2.0884473
O	0.0897387	-1.7185859	-2.8986718
O	2.0827779	-2.2557305	-1.9744176
H	2.7271141	-1.9353053	-1.3100666
N	-0.0835565	0.7327099	-1.3760573
C	-1.2848974	2.2087134	-2.8641856
H	-2.1995863	2.1742651	-2.2862227
H	-1.2938165	2.8318320	-3.7491490
C	-0.1798169	1.4968812	-2.5477310
C	1.0514298	1.5293822	-3.4272129
H	1.2489854	0.5537614	-3.8863112
H	0.9088148	2.2489119	-4.2360925
H	1.9458571	1.8292593	-2.8652930
C	-0.3680889	0.2527188	0.9101313
C	-1.1108602	0.7805720	-0.3273463
C	0.9453225	-0.2619797	-1.1054542
C	0.5972240	-0.8000682	0.3269581
H	0.1932932	1.0670784	1.3819812
H	-1.0408037	-0.1755386	1.6589820
H	-1.4581473	1.8114294	-0.2015875
H	-1.9838169	0.1575118	-0.5778523
H	1.9491198	0.1938347	-1.1139440
H	0.0897711	-1.7679925	0.2445859
H	1.4933390	-0.9439180	0.9381332
C	3.1217107	-4.0742486	0.8667413
H	4.2265499	-4.0648963	0.8048886
O	2.4945453	-3.0100176	0.9124364
C	2.4873417	-5.4366604	0.8888368
H	2.8614649	-6.0135112	1.7451790
H	1.4003781	-5.3512873	0.9504684
H	2.7630043	-5.9962174	-0.0148884
