31
-0.00715159 (energy)
C	2.0789811	-1.4395052	-0.9818019
O	1.9319741	-1.7185861	-2.1628283
O	2.8646316	-2.2557305	-0.1737076
H	2.9311852	-1.9353052	0.7493861
N	0.8205046	0.7327098	-1.1078302
C	0.8567744	2.2087130	-3.0200099
H	-0.2154252	2.1742647	-3.1652152
H	1.4187855	2.8318316	-3.7036642
C	1.4999021	1.4968809	-2.0672595
C	3.0084120	1.5293820	-1.9495516
H	3.4548510	0.5537612	-2.1742548
H	3.4191003	2.2489116	-2.6608605
H	3.3323879	1.8292592	-0.9441692
C	-0.8669935	0.2527189	0.4605980
C	-0.6405541	0.7805719	-0.9648091
C	1.4347314	-0.2619797	-0.2391854
C	0.2473355	-0.8000681	0.6343528
H	-0.7402492	1.0670785	1.1829054
H	-1.8636749	-0.1755385	0.6018382
H	-0.9874277	1.8114293	-1.0917041
H	-1.1482557	0.1575116	-1.7178334
H	2.2091418	0.1938348	0.3995394
H	-0.0884481	-1.7679924	0.2450677
H	0.5409437	-0.9439178	1.6785516
C	3.6514026	-3.9010385	3.5119508
H	3.8582400	-3.1836972	4.3287877
O	3.4041865	-3.4889245	2.3730661
C	3.6973285	-5.3524710	3.8996526
H	2.9681502	-5.5538825	4.6957552
H	3.4825137	-5.9857582	3.0362994
H	4.6864505	-5.6039240	4.3048961
