31
-0.00925499 (energy)
C	1.6178071	-0.7939527	-2.0274644
O	1.0757309	-0.6938248	-3.1185411
O	2.6324616	-1.7287664	-1.8455680
H	3.0107181	-1.7165565	-0.9422537
N	0.3921219	1.1405527	-0.9913422
C	-0.2277995	3.1463476	-2.1866732
H	-1.2850008	3.0352214	-1.9820764
H	0.0664947	4.0173526	-2.7578629
C	0.7024027	2.2464677	-1.7955317
C	2.1601967	2.4156402	-2.1653027
H	2.5028591	1.6232983	-2.8408854
H	2.3028355	3.3684286	-2.6793033
H	2.8084955	2.4122069	-1.2790875
C	-0.6571736	-0.0119743	0.7717996
C	-0.9319081	0.9686508	-0.3791063
C	1.2664002	-0.0014760	-0.7619222
C	0.4493808	-0.9267624	0.2070160
H	-0.2910292	0.5359545	1.6474056
H	-1.5454408	-0.5763879	1.0703724
H	-1.3012632	1.9375466	-0.0271004
H	-1.6665410	0.5657933	-1.0939706
H	2.2125648	0.3121561	-0.2909069
H	0.0007040	-1.7504791	-0.3598623
H	1.0824192	-1.3631904	0.9855033
C	5.7438826	-3.5917960	-0.3810039
H	6.5842269	-2.8965609	-0.1937813
O	4.5793715	-3.2201641	-0.1971133
C	6.1336691	-4.9632536	-0.8566600
H	6.7910567	-5.4454048	-0.1208485
H	5.2461300	-5.5794280	-1.0153423
H	6.7045153	-4.8904499	-1.7918860
