31
-0.00456464 (energy)
C	-0.3971830	-0.0653480	-0.2601762
O	0.4100532	0.5590440	-0.9330988
O	-0.0626927	-0.4513834	1.0342657
H	-0.7836714	-0.9305651	1.4922814
N	-2.2495407	0.0676805	-1.9540590
C	-2.6377676	1.9727646	-3.3880277
H	-2.5399130	1.4026173	-4.3030358
H	-2.8596952	3.0267237	-3.4949617
C	-2.4641326	1.4381769	-2.1583455
C	-2.5465637	2.2944172	-0.9131262
H	-1.5809138	2.3570120	-0.3981141
H	-2.8403453	3.3110084	-1.1825382
H	-3.2882571	1.9083552	-0.2014188
C	-2.5761304	-2.2371124	-2.2994246
C	-2.3617902	-0.9101406	-3.0443362
C	-1.7871450	-0.5327640	-0.7103218
C	-1.7312571	-2.0702635	-1.0193344
H	-3.6359075	-2.3540420	-2.0460995
H	-2.2681060	-3.1079881	-2.8854481
H	-3.2085722	-0.6468189	-3.6867633
H	-1.4561963	-0.9336438	-3.6707210
H	-2.4908699	-0.3292338	0.1135682
H	-0.6951836	-2.3705565	-1.2131041
H	-2.1011951	-2.6689609	-0.1815057
C	2.0417016	-0.6997651	3.1372146
H	1.7078761	0.2523776	3.5917118
O	1.7772406	-1.7750217	3.6866650
C	2.8093707	-0.5679391	1.8517637
H	3.7072377	0.0444865	2.0092966
H	3.0975185	-1.5519637	1.4759404
H	2.2001013	-0.0494298	1.0995986
