31
-0.00425258 (energy)
C	0.3251936	0.2724446	0.2230234
O	0.8477179	-0.7919768	-0.0741230
O	-1.0076664	0.5009092	-0.1052676
H	-1.3335271	1.3755025	0.1915574
N	2.3150010	1.1540532	1.4806390
C	3.7945993	-0.2196276	2.8073350
H	4.6787142	0.0530542	2.2453127
H	3.9384460	-0.8984577	3.6380060
C	2.5534474	0.2172314	2.4962921
C	1.3414597	-0.2475160	3.2745012
H	0.6665885	-0.8492592	2.6547518
H	1.6577933	-0.8703711	4.1137465
H	0.7693585	0.5971731	3.6805564
C	2.7118316	3.0878160	0.1995867
C	3.4082065	1.8524684	0.7917584
C	1.0098649	1.4601382	0.9112911
C	1.3044781	2.5680611	-0.1602624
H	2.6463834	3.8765277	0.9576263
H	3.2354643	3.4945478	-0.6705312
H	4.1879157	2.1150771	1.5143791
H	3.8678203	1.2272953	0.0101419
H	0.3206921	1.8416602	1.6826080
H	1.3153918	2.1206128	-1.1606833
H	0.5436169	3.3543864	-0.1545644
C	2.1277717	-4.3352951	-2.4127435
H	2.0985742	-5.0475158	-1.5662967
O	1.9718671	-4.7412117	-3.5698682
C	2.3633891	-2.8983554	-2.0402293
H	3.3166499	-2.7987096	-1.5041217
H	2.3767087	-2.2692835	-2.9327919
H	1.5773955	-2.5518781	-1.3561380
