31
-0.0120923 (energy)
C	-0.4798432	0.0898185	0.0437465
O	-0.2576779	-1.1162684	0.1469481
O	0.5293323	1.0133522	-0.1672300
H	1.4020594	0.5639002	-0.1989933
N	-2.9716943	-0.0788747	-0.0327715
C	-4.1706417	-1.7734565	-1.2707499
H	-4.6931317	-2.1521808	-0.4014924
H	-4.3982414	-2.2460018	-2.2176531
C	-3.2545369	-0.7798026	-1.2110076
C	-2.5084451	-0.3300664	-2.4490235
H	-1.4329928	-0.5319274	-2.3752224
H	-2.8821509	-0.8682758	-3.3225914
H	-2.6357092	0.7444119	-2.6331448
C	-3.4543231	1.0224450	1.9890795
C	-3.7612197	-0.2557650	1.1922484
C	-1.8204337	0.7985693	0.1649043
C	-1.9850373	1.3288861	1.6309393
H	-4.1080063	1.8352650	1.6524704
H	-3.5986525	0.8950007	3.0661869
H	-4.8218972	-0.3473033	0.9354474
H	-3.4676100	-1.1632555	1.7436744
H	-1.8136467	1.6328812	-0.5466156
H	-1.3145556	0.7799075	2.3021353
H	-1.7296503	2.3886888	1.6997951
C	2.0551313	-2.2320597	-1.0275207
H	1.6885252	-2.5304304	-0.0269419
O	2.5978137	-1.1328328	-1.1862913
C	1.8411028	-3.2405482	-2.1212394
H	0.7707949	-3.4634877	-2.2250953
H	2.2314978	-2.8648502	-3.0694058
H	2.3383287	-4.1857339	-1.8658892
