31
-0.0110786 (energy)
C	-0.4798432	-0.0406853	-0.0912460
O	-0.2576779	0.9495676	0.6049546
O	0.5293323	-0.8837662	-0.5232645
H	1.4020594	-0.5598830	-0.2100303
N	-2.9716943	0.0393565	0.0758041
C	-4.1706417	0.5417243	2.1134067
H	-4.6931317	1.3905919	1.6909561
H	-4.3982414	0.2950575	3.1425229
C	-3.2545369	-0.1810572	1.4289331
C	-2.5084451	-1.3213563	2.0882235
H	-1.4329928	-1.1192833	2.1614423
H	-2.8821509	-1.4705825	3.1033697
H	-2.6357092	-2.2628054	1.5386074
C	-3.4543231	0.4953172	-2.1809383
C	-3.7612197	0.9622898	-0.7489128
C	-1.8204337	-0.5057412	-0.6396344
C	-1.9850373	0.0303616	-2.1035635
H	-4.1080063	-0.3437072	-2.4455514
H	-3.5986525	1.2852965	-2.9241309
H	-4.8218972	0.8673438	-0.4933521
H	-3.4676100	2.0119177	-0.5880060
H	-1.8136467	-1.6022174	-0.6308638
H	-1.3145556	0.8823401	-2.2648529
H	-1.7296503	-0.7372348	-2.8375381
C	3.7390860	-0.2812345	1.7277091
H	2.8867185	-0.3423982	2.4307820
O	3.5354481	-0.1146656	0.5199018
C	5.1007823	-0.4134176	2.3501149
H	5.1849799	-1.3752431	2.8734211
H	5.8785679	-0.3414306	1.5869347
H	5.2492887	0.3713755	3.1036791
