31
-0.00612399 (energy)
C	-0.4700281	0.1380251	-0.0159144
O	0.1136282	0.7073920	0.9059426
O	0.1686587	-0.7580874	-0.8555110
H	1.1164488	-0.8388688	-0.6108956
N	-2.7747209	0.8885550	0.5913172
C	-3.6111378	0.9745328	2.8573020
H	-3.8412886	2.0316251	2.8170135
H	-3.8469745	0.4615318	3.7808481
C	-3.0343828	0.3014790	1.8352857
C	-2.6782100	-1.1638621	1.9676313
H	-1.5952038	-1.3286224	1.9152503
H	-3.0193508	-1.5421296	2.9335417
H	-3.1475442	-1.7694523	1.1817647
C	-3.2086956	2.2288380	-1.2925683
C	-3.2547468	2.2317636	0.2439267
C	-1.9189825	0.3145491	-0.4443535
C	-1.9800314	1.3534721	-1.6167446
H	-4.1212762	1.7700902	-1.6900992
H	-3.1223759	3.2342208	-1.7156377
H	-4.2682597	2.3718730	0.6344696
H	-2.6157476	3.0206450	0.6719014
H	-2.2814035	-0.6644946	-0.7797748
H	-1.0725970	1.9682807	-1.6160278
H	-2.0421827	0.8536938	-2.5860248
C	2.6341217	-1.7140459	-2.7239067
H	2.8608150	-0.7908023	-3.2903115
O	2.9777290	-1.8154093	-1.5408295
C	1.9047233	-2.7805013	-3.4918447
H	2.4900844	-3.0794750	-4.3716253
H	1.7233245	-3.6513607	-2.8583818
H	0.9486945	-2.3899918	-3.8651068
