31
-0.00546734 (energy)
C	-0.4798432	0.0694397	0.0718280
O	-0.2576780	-1.0992083	-0.2437002
O	0.5293324	1.0094355	0.1894420
H	1.4020595	0.5979524	0.0058727
N	-2.9716943	-0.0629092	-0.0577719
C	-4.1706418	-1.2318815	-1.8006722
H	-4.6931319	-1.8850695	-1.1133687
H	-4.3982415	-1.3520689	-2.8520901
C	-3.2545369	-0.3185854	-1.4046832
C	-2.5084450	0.5274546	-2.4142187
H	-1.4329927	0.3125258	-2.4139089
H	-2.8821508	0.3204811	-3.4191825
H	-2.6357090	1.6001072	-2.2197430
C	-3.4543231	0.2804791	2.2188200
C	-3.7612198	-0.6481131	1.0328702
C	-1.8204336	0.6940093	0.4280861
C	-1.9850372	0.6909306	1.9870874
H	-4.1080063	1.1594072	2.1805118
H	-3.5986526	-0.2076717	3.1873814
H	-4.8218973	-0.6462997	0.7602482
H	-3.4676102	-1.6894740	1.2406611
H	-1.8136465	1.7213601	0.0448275
H	-1.3145556	-0.0545032	2.4300436
H	-1.7296502	1.6632693	2.4142645
C	3.0522026	0.9626035	2.9786922
H	4.0096510	0.6186841	3.4141172
O	2.8560676	0.8698903	1.7617504
C	2.0617271	1.5254236	3.9591359
H	2.4995763	2.3822839	4.4884046
H	1.1504318	1.8381727	3.4450292
H	1.8162128	0.7739905	4.7212936
