31
-0.00506896 (energy)
C	-0.1926261	0.5624584	-2.6299337
O	0.9189723	0.7872646	-3.1079136
O	-1.3552898	1.0588889	-3.1935210
H	-1.1459605	1.6042745	-3.9830805
N	0.5525426	-1.1194772	-0.9389428
C	2.1946302	-2.8373824	-1.3794228
H	2.8584227	-2.5181397	-0.5860123
H	2.5031889	-3.7031838	-1.9511796
C	1.0435173	-2.1964005	-1.6864187
C	0.1826932	-2.6496732	-2.8462138
H	0.1299855	-1.8924502	-3.6378117
H	0.6038319	-3.5549919	-3.2883522
H	-0.8435835	-2.8738050	-2.5282177
C	0.0396955	0.0977498	1.0076089
C	1.1623769	-0.7047624	0.3304776
C	-0.5167139	-0.2204484	-1.3665202
C	-0.6788421	0.7833501	-0.1733345
H	-0.6427859	-0.5847642	1.5269137
H	0.4166611	0.8207441	1.7372729
H	1.4522145	-1.5907214	0.9053110
H	2.0656130	-0.0938841	0.1729703
H	-1.4558676	-0.7568438	-1.5472223
H	-0.1819264	1.7301858	-0.4141752
H	-1.7314996	1.0005038	0.0213498
C	3.3488938	2.5911024	-1.2727819
H	4.1815161	2.0164179	-1.7211799
O	2.5892276	2.0505440	-0.4611687
C	3.2349984	4.0208462	-1.7221578
H	3.1049999	4.0649496	-2.8117459
H	2.3905677	4.5096285	-1.2316423
H	4.1609419	4.5641069	-1.4912690
