31
-0.00798545 (energy)
C	-0.4317821	-0.1989874	-0.1191589
O	-0.5979043	0.8009973	0.5787577
O	0.8261608	-0.6483872	-0.4817609
H	1.5185609	-0.0527225	-0.1206042
N	-2.8102374	-0.9646657	-0.1012320
C	-4.2271046	-0.9165295	1.8562773
H	-4.9789139	-0.2889417	1.3948091
H	-4.4190155	-1.2360436	2.8725486
C	-3.0821458	-1.2814109	1.2349111
C	-2.0361245	-2.1105128	1.9490740
H	-1.0979416	-1.5587756	2.0839480
H	-2.3973208	-2.3873534	2.9417183
H	-1.8059685	-3.0340948	1.4026083
C	-3.2833082	-0.6746606	-2.3872368
C	-3.8140340	-0.3531396	-0.9808584
C	-1.5023136	-1.0827303	-0.7413731
C	-1.7506183	-0.6183283	-2.2179450
H	-3.5992501	-1.6820586	-2.6815387
H	-3.6408785	0.0281647	-3.1457970
H	-4.7939427	-0.8024298	-0.7877780
H	-3.9012276	0.7323320	-0.8136314
H	-1.1271370	-2.1128792	-0.7209072
H	-1.3979594	0.4113167	-2.3479070
H	-1.2084964	-1.2474387	-2.9275008
C	3.6005259	-1.6539190	1.7346401
H	3.9671320	-2.2765139	0.8964525
O	3.0578434	-0.5666809	1.5078778
C	3.8145545	-2.2275142	3.1073230
H	4.8848623	-2.4014879	3.2811655
H	3.4241593	-1.5501815	3.8698116
H	3.3173285	-3.2030332	3.1906449
