31
-0.00363803 (energy)
C	1.3173252	0.1078227	2.3501157
O	2.4081469	-0.4552156	2.2620853
O	0.6579542	0.2603642	3.5575187
H	1.1753207	-0.1520999	4.2833794
N	1.2365279	0.9545388	0.0006099
C	3.1381752	1.8904181	-1.1610873
H	3.0972474	1.1733431	-1.9711274
H	3.9102422	2.6467393	-1.2212304
C	2.3008865	1.8582886	-0.0989760
C	2.4416500	2.8493611	1.0366120
H	2.7129440	2.3574073	1.9785106
H	3.2303536	3.5682533	0.8051238
H	1.5126741	3.4086573	1.2062941
C	-0.5997001	-0.3054611	-0.7572712
C	0.8457558	0.0794161	-1.1114926
C	0.4780483	0.6835772	1.2194917
C	-0.5875419	-0.3805468	0.7838926
H	-1.2861349	0.4785451	-1.0970141
H	-0.9106090	-1.2498677	-1.2140702
H	0.9153467	0.6312504	-2.0548900
H	1.4985135	-0.8047844	-1.1883894
H	-0.0143125	1.5843386	1.6049692
H	-0.2695675	-1.3785571	1.1068402
H	-1.5592585	-0.1775769	1.2396507
C	5.4087760	-3.2240554	1.0384569
H	4.8761273	-3.8782968	1.7545829
O	6.5851448	-3.4595701	0.7406289
C	4.6056618	-2.0783648	0.4893862
H	4.2533277	-1.4374135	1.3085865
H	5.2069234	-1.4884680	-0.2056555
H	3.7116842	-2.4559539	-0.0244659
