31
-0.00308127 (energy)
C	1.4971763	-2.2600884	1.5513977
O	2.4954686	-2.0719567	0.8566512
O	1.5649075	-2.3771058	2.9289245
H	2.4964632	-2.3063868	3.2320272
N	-0.1872713	-1.9320173	-0.2648180
C	-0.0331145	-0.2069946	-1.9507022
H	-0.0470996	-0.9039234	-2.7790326
H	0.0159625	0.8446780	-2.2023018
C	-0.0485528	-0.5947537	-0.6547201
C	0.0342019	0.4204391	0.4651613
H	0.9541957	0.3093426	1.0517284
H	0.0318682	1.4305394	0.0502660
H	-0.8151899	0.3356520	1.1550491
C	-1.0515357	-4.1188232	-0.3329630
C	-0.4897427	-3.0003217	-1.2253133
C	0.0621392	-2.4431035	1.0809047
C	-0.2474925	-3.9763275	0.9763044
H	-2.1178949	-3.9455392	-0.1482079
H	-0.9415064	-5.1119423	-0.7788794
H	-1.2195411	-2.6396256	-1.9578810
H	0.4078975	-3.3259602	-1.7748748
H	-0.5882306	-1.9701252	1.8263533
H	0.6894141	-4.5404290	0.9026648
H	-0.7820943	-4.3335956	1.8593140
C	6.3607256	-0.9236381	-0.2481721
H	6.5708183	-1.1227782	-1.3162485
O	7.2276158	-1.1429137	0.6053101
C	4.9888563	-0.3876590	0.0514595
H	4.2231906	-1.0920418	-0.3001762
H	4.8694166	-0.2209814	1.1240869
H	4.8251066	0.5541353	-0.4889318
