31
-0.0101875 (energy)
C	0.4798432	-0.0827949	-0.0559119
O	0.2576779	0.4308735	1.0401908
O	-0.5293324	-0.3618507	-0.9612037
H	-1.4020594	-0.1096168	-0.5878484
N	2.9716943	0.0678183	0.0519216
C	4.1706417	1.9872300	0.9004830
H	4.6931318	1.4237931	1.6630967
H	4.3982415	3.0435448	0.8362676
C	3.2545369	1.4386647	0.0698247
C	2.5084450	2.2859497	-0.9386662
H	1.4329927	2.3229666	-0.7269488
H	2.8821508	3.3115864	-0.9093472
H	2.6357091	1.9081642	-1.9612523
C	3.4543231	-2.2338158	0.1090764
C	3.7612198	-0.9046349	0.8176231
C	1.8204337	-0.5420960	-0.6091292
C	1.9850373	-2.0768779	-0.3353794
H	4.1080063	-2.3487139	-0.7631509
H	3.5986525	-3.1028960	0.7580001
H	4.8218972	-0.6364695	0.7684970
H	3.4676101	-0.9284385	1.8792459
H	1.8136466	-0.3430577	-1.6874245
H	1.3145556	-2.3836614	0.4756481
H	1.7296503	-2.6664102	-1.2187676
C	-4.5499286	0.4047908	0.0230520
H	-4.3488650	1.4912210	0.0849047
O	-3.6107718	-0.3976483	-0.0226432
C	-6.0017993	0.0166397	0.0009565
H	-6.5049207	0.4852482	-0.8553856
H	-6.1064725	-1.0686353	-0.0606750
H	-6.5049870	0.3852805	0.9046818
