31
-0.00291353 (energy)
C	-0.2883427	0.3770693	0.1220978
O	0.7719927	0.4282376	0.7447728
O	-0.5677607	-0.6322874	-0.7828804
H	0.1919380	-1.2512821	-0.8490025
N	-1.4408816	2.2173445	1.3584940
C	-1.3054794	2.5242873	3.7520530
H	-0.9062817	3.5280947	3.6810005
H	-1.4748914	2.1390238	4.7493483
C	-1.5667983	1.7518057	2.6726320
C	-2.0671311	0.3319049	2.8312126
H	-1.3460523	-0.4015165	2.4505151
H	-2.2285930	0.1120615	3.8885891
H	-3.0163487	0.1734528	2.3035013
C	-1.6326986	3.7548817	-0.4115067
C	-1.1725274	3.6272736	1.0496246
C	-1.4377382	1.3726126	0.1665196
C	-1.2829658	2.3819933	-1.0229277
H	-2.7149112	3.9249076	-0.4460150
H	-1.1428789	4.5786610	-0.9394250
H	-1.7454106	4.2674269	1.7288679
H	-0.1063303	3.8786643	1.1672789
H	-2.3681757	0.8010876	0.0663793
H	-0.2453545	2.3837089	-1.3761803
H	-1.9203089	2.1027008	-1.8649105
C	3.1672875	-2.1524262	3.2014566
H	2.2158506	-2.7026628	3.3302601
O	4.0474969	-2.2256380	4.0662592
C	3.2820218	-1.3472902	1.9374668
H	2.4733801	-0.6059185	1.8873308
H	4.2481939	-0.8401760	1.8936093
H	3.1678599	-2.0003879	1.0621134
