31
-0.00217358 (energy)
C	-0.4700281	0.0552303	-0.1274905
O	0.1136282	1.1382653	-0.1596481
O	0.1686587	-1.1199379	0.2287674
H	1.1164488	-0.9484855	0.4210339
N	-2.7747209	0.9563732	-0.4738526
C	-3.6111378	2.9617625	0.5846809
H	-3.8412886	3.4554178	-0.3509321
H	-3.8469745	3.5050764	1.4907259
C	-3.0343828	1.7401435	0.6565544
C	-2.6782100	1.1220876	1.9917498
H	-1.5952038	0.9943442	2.1082459
H	-3.0193508	1.7694567	2.8022943
H	-3.1475442	0.1387121	2.1232730
C	-3.2086956	-0.0049779	-2.5765145
C	-3.2547468	1.3271286	-1.8108006
C	-1.9189825	-0.2275468	-0.4945843
C	-1.9800314	-0.7234058	-1.9805136
H	-4.1212762	-0.5786237	-2.3779927
H	-3.1223759	0.1313246	-3.6587362
H	-4.2682597	1.7354033	-1.7368675
H	-2.6157476	2.0922062	-2.2800046
H	-2.2814035	-1.0075521	0.1855818
H	-1.0725970	-0.4153807	-2.5125950
H	-2.0421827	-1.8127163	-2.0323330
C	2.7619899	1.7447376	3.0153752
H	1.8105530	1.5811664	3.5562959
O	3.6421993	2.4570726	3.5111798
C	2.8767242	1.0526583	1.6861121
H	2.0680825	1.3799251	1.0189974
H	3.8428963	1.2682336	1.2250096
H	2.7625623	-0.0319689	1.8140346
