31
-0.00215479 (energy)
C	-0.7191307	4.2074836	1.1176926
O	0.1593690	4.2645440	0.2576716
O	-1.5997386	5.2504338	1.3471389
H	-1.3984977	6.0044460	0.7507864
N	-0.4213576	1.7906231	1.6778271
C	-0.0429821	0.0620533	0.0314520
H	0.8945332	-0.2590298	0.4673503
H	-0.3827532	-0.4798286	-0.8418440
C	-0.7669122	1.0996573	0.5104804
C	-2.0409993	1.5452775	-0.1748837
H	-1.9521321	2.5578552	-0.5866860
H	-2.2688815	0.8741470	-1.0056061
H	-2.8970369	1.5369425	0.5119428
C	0.3333677	2.0400142	3.8918531
C	0.6608256	1.3413654	2.5623392
C	-0.9884777	3.0714328	2.0929005
C	-0.2754089	3.3881357	3.4526141
H	-0.4037269	1.4504238	4.4489514
H	1.2132169	2.1724113	4.5286966
H	0.6389241	0.2494771	2.6439660
H	1.6523738	1.6317050	2.1797804
H	-2.0743918	3.0129155	2.2334326
H	0.5215468	4.1232824	3.2918400
H	-0.9749719	3.8095255	4.1780020
C	2.9903287	0.9092498	-3.2552069
H	2.8715142	1.9946121	-3.0750555
O	3.1108719	0.4820854	-4.4089019
C	2.9911674	0.0463272	-2.0245803
H	2.0525273	0.1785964	-1.4700475
H	3.1129088	-1.0047436	-2.2947762
H	3.8029489	0.3506152	-1.3506122
