31
-0.00202495 (energy)
C	-2.7172250	0.8281806	-1.2989136
O	-2.5893091	1.9618210	-0.8372312
O	-3.0780464	0.6012133	-2.6157866
H	-3.2230564	1.4536223	-3.0816617
N	-1.7959539	-0.3955913	0.6752384
C	0.1385871	0.3307823	1.9288751
H	-0.3932452	0.3871134	2.8701602
H	1.1930520	0.5742794	1.9521012
C	-0.4564248	0.0020876	0.7592231
C	0.3222749	-0.0020607	-0.5389327
H	-0.0455358	0.7571045	-1.2397719
H	1.3732735	0.2186025	-0.3410543
H	0.2695620	-0.9760272	-1.0421337
C	-3.7550882	-1.5224620	1.3276741
C	-2.6152670	-0.6438672	1.8678823
C	-2.5650710	-0.4944576	-0.5629332
C	-3.9804079	-0.9857399	-0.1013577
H	-3.4334530	-2.5697900	1.2970366
H	-4.6611112	-1.4635595	1.9383182
H	-2.0134426	-1.1547597	2.6269337
H	-2.9929792	0.2919837	2.3098469
H	-2.1208985	-1.2094390	-1.2657102
H	-4.6775986	-0.1402962	-0.0773263
H	-4.3850740	-1.7308417	-0.7899896
C	4.6763415	0.7270279	-0.5429401
H	4.8268149	1.0350067	0.5092432
O	3.6047748	0.2198847	-0.8930298
C	5.8411833	0.9718329	-1.4607048
H	6.7289448	0.4391718	-1.0943734
H	5.6058906	0.6395965	-2.4740325
H	6.0948960	2.0401558	-1.4720814
