31
-0.00186514 (energy)
C	-0.4395867	0.7778356	2.3335315
O	-1.0087367	-0.2426694	2.7199139
O	-0.0866217	1.8008408	3.1965130
H	-0.3708544	1.5881202	4.1122806
N	0.0000000	0.0000000	0.0000000
C	0.7284135	-2.2352296	-0.5611016
H	-0.1146721	-2.4328022	-1.2108773
H	1.4643330	-3.0235640	-0.4679467
C	0.8747984	-1.0844628	0.1349387
C	2.0427775	-0.8848631	1.0770555
H	1.7163573	-0.7882464	2.1196039
H	2.7130026	-1.7453151	1.0235131
H	2.6220667	0.0120515	0.8229518
C	-1.3706212	1.5352213	-1.1393901
C	-1.0498857	0.0361835	-1.0255463
C	-0.0626405	1.1443640	0.9060308
C	-1.1855123	2.0559687	0.3012792
H	-0.6553214	2.0172359	-1.8156237
H	-2.3785779	1.7249435	-1.5205229
H	-0.6644789	-0.3840727	-1.9605378
H	-1.9340246	-0.5511445	-0.7303169
H	0.8898047	1.6860033	0.9491358
H	-2.1148211	1.9260994	0.8678005
H	-0.9094048	3.1115409	0.3530240
C	5.3030223	1.2419938	1.4155308
H	5.4031768	0.2743903	1.9430678
O	4.4461048	1.3823985	0.5357632
C	6.2606522	2.3163263	1.8489275
H	7.2960450	1.9790451	1.7066250
H	6.0912719	3.2321623	1.2787244
H	6.1385516	2.5209796	2.9208519
