31
-0.00126 (energy)
C	3.2522873	-1.8198715	-2.3622022
O	2.3346760	-1.6697494	-3.1684940
O	4.5811941	-1.8435973	-2.7486016
H	4.6551071	-1.7442819	-3.7229433
N	1.8588088	-1.6296270	-0.2968550
C	0.0775779	-0.0202635	-0.0160736
H	-0.6792429	-0.7712883	0.1715977
H	-0.2444639	1.0125624	0.0197883
C	1.3637008	-0.3203325	-0.3093511
C	2.3674999	0.7684068	-0.6234101
H	2.7307450	0.7052352	-1.6562965
H	1.9014803	1.7483361	-0.5008928
H	3.2393647	0.7224130	0.0416739
C	2.1310586	-3.8238051	0.5063758
C	1.0639966	-2.7626510	0.1928844
C	3.1396389	-2.0470082	-0.8622326
C	3.2066992	-3.5865329	-0.5742124
H	2.5465462	-3.6481686	1.5052780
H	1.7354341	-4.8435652	0.4780211
H	0.4991866	-2.4585265	1.0804995
H	0.3430981	-3.1162912	-0.5614763
H	3.9840887	-1.5309888	-0.3899915
H	2.9537584	-4.1458071	-1.4823206
H	4.2103060	-3.8885803	-0.2665010
C	2.0519600	3.8573904	-2.3780270
H	1.9331454	2.7720280	-2.5581783
O	2.1725033	4.2845550	-1.2243321
C	2.0527986	4.7203128	-3.6086538
H	1.1141585	4.5880436	-4.1631865
H	2.1745401	5.7713837	-3.3384580
H	2.8645801	4.4160247	-4.2826219
