31
-0.00100734 (energy)
C	-3.9991531	-1.8483416	0.2443586
O	-3.2302987	-2.7290791	0.6288295
O	-5.3210229	-1.7900530	0.6507128
H	-5.5276835	-2.5413554	1.2486298
N	-2.2801666	-0.4398611	-0.8979643
C	-0.0816502	0.0002628	0.0045262
H	0.4391704	-0.4078220	-0.8523573
H	0.5330240	0.4046932	0.7984645
C	-1.4292436	-0.0015794	0.1234951
C	-2.1037310	0.5270877	1.3713641
H	-2.6404150	-0.2615815	1.9124400
H	-1.3546109	0.9375993	2.0516181
H	-2.8229031	1.3230275	1.1392615
C	-3.0485485	-0.6824239	-3.1080479
C	-1.7851366	-0.7792100	-2.2377785
C	-3.7040659	-0.7251610	-0.7382799
C	-4.1738319	-1.1635154	-2.1682289
H	-3.2161337	0.3595063	-3.4039878
H	-2.9836830	-1.2871784	-4.0176071
H	-1.0125165	-0.0626810	-2.5361191
H	-1.3414643	-1.7871599	-2.2695321
H	-4.2639872	0.1562740	-0.4037003
H	-4.2570968	-2.2555075	-2.2134795
H	-5.1537579	-0.7451607	-2.4087902
C	3.4959134	-2.2076489	2.2904039
H	3.0319743	-3.0998908	1.8286162
O	3.9330057	-2.2640354	3.4452992
C	3.5418481	-0.9811692	1.4228121
H	2.5258063	-0.6942551	1.1205102
H	4.0137790	-0.1531854	1.9560107
H	4.0992883	-1.1917845	0.5004700
