31
-0.000201796 (energy)
C	-2.7172250	-1.2224897	0.9373251
O	-2.5893091	-2.1298586	0.1157578
O	-3.0780464	-1.4596073	2.2524084
H	-3.2230564	-2.4199484	2.3986468
N	-1.7959539	0.6026793	-0.4992164
C	0.1385871	0.3488803	-1.9256839
H	-0.3932452	0.6178849	-2.8294690
H	1.1930520	0.1280117	-2.0307903
C	-0.4564248	0.2577078	-0.7141504
C	0.3222749	-0.1823894	0.5071359
H	-0.0455358	-1.1354724	0.9060595
H	1.3732735	-0.3220666	0.2457198
H	0.2695620	0.5607349	1.3131063
C	-3.7550882	1.8847375	-0.7268930
C	-2.6152670	1.2438906	-1.5350198
C	-2.5650710	0.2721037	0.6980986
C	-3.9804079	0.8916261	0.4323879
H	-3.4334530	2.8584253	-0.3398959
H	-4.6611112	2.0382398	-1.3208566
H	-2.0134426	1.9835833	-2.0735592
H	-2.9929792	0.5156391	-2.2704105
H	-2.1208985	0.7036026	1.6030310
H	-4.6775986	0.1053882	0.1206470
H	-4.3850740	1.3562669	1.3343301
C	4.9017523	-1.1353158	-2.9126370
H	4.5245370	-0.5771251	-3.7905404
O	5.8186241	-1.9536335	-3.0457328
C	4.2266841	-0.8195664	-1.6073924
H	3.1502496	-1.0247676	-1.6796984
H	4.6600371	-1.4129495	-0.7995073
H	4.3307846	0.2490889	-1.3772787
