31
-0.0097928 (energy)
C	-0.4798432	-0.0070237	-0.0996584
O	-0.2576779	0.6853950	0.8932427
O	0.5293323	-0.6515016	-0.7939737
H	1.4020594	-0.4542834	-0.3888552
N	-2.9716943	0.0110565	0.0846932
C	-4.1706417	-0.2137733	2.1712333
H	-4.6931317	0.7283880	2.0645894
H	-4.3982414	-0.7975428	3.0539212
C	-3.2545369	-0.6588620	1.2808327
C	-2.5084451	-1.9558833	1.5103578
H	-1.4329928	-1.7910391	1.6482740
H	-2.8821509	-2.4433105	2.4132448
H	-2.6357092	-2.6525762	0.6718930
C	-3.4543231	1.2113707	-1.8800031
C	-3.7612197	1.1603999	-0.3746253
C	-1.8204337	-0.2564734	-0.7740334
C	-1.9850373	0.7479917	-1.9663188
H	-4.1080063	0.5134487	-2.4156214
H	-3.5986525	2.2078952	-2.3081869
H	-4.8218972	0.9837729	-0.1669503
H	-3.4676100	2.0916941	0.1355714
H	-1.8136467	-1.2898237	-1.1408087
H	-1.3145556	1.6037538	-1.8264875
H	-1.7296503	0.2777211	-2.9185628
C	4.0265781	1.1185407	-0.6618931
H	3.5210175	1.3782516	-1.6113885
O	3.4395520	0.4379903	0.1867904
C	5.4258044	1.6458638	-0.5096627
H	5.4265776	2.7415295	-0.5842481
H	5.8459546	1.3430860	0.4517822
H	6.0607439	1.2723783	-1.3240176
