31
-0.00873768 (energy)
C	-0.4798432	0.0827949	-0.0559119
O	-0.2576780	-0.4308734	1.0401908
O	0.5293324	0.3618506	-0.9612037
H	1.4020595	0.1096168	-0.5878484
N	-2.9716943	-0.0678183	0.0519215
C	-4.1706418	-1.9872299	0.9004829
H	-4.6931319	-1.4237930	1.6630965
H	-4.3982415	-3.0435448	0.8362676
C	-3.2545369	-1.4386647	0.0698246
C	-2.5084450	-2.2859498	-0.9386662
H	-1.4329927	-2.3229666	-0.7269487
H	-2.8821508	-3.3115864	-0.9093472
H	-2.6357090	-1.9081643	-1.9612523
C	-3.4543231	2.2338158	0.1090761
C	-3.7612198	0.9046349	0.8176228
C	-1.8204336	0.5420960	-0.6091293
C	-1.9850372	2.0768779	-0.3353796
H	-4.1080063	2.3487139	-0.7631513
H	-3.5986526	3.1028961	0.7579998
H	-4.8218973	0.6364695	0.7684967
H	-3.4676102	0.9284386	1.8792456
H	-1.8136465	0.3430576	-1.6874246
H	-1.3145556	2.3836614	0.4756479
H	-1.7296502	2.6664102	-1.2187678
C	2.4578948	-2.3796256	0.0189369
H	1.8519092	-2.3702733	-0.9069556
O	2.8110506	-1.3153946	0.5392305
C	2.7942146	-3.7420374	0.5572688
H	3.3487670	-4.3188882	-0.1949024
H	3.3910707	-3.6566643	1.4677911
H	1.8737342	-4.3015944	0.7704006
