31
-0.00705522 (energy)
C	-0.4317821	0.0037010	-0.2319076
O	-0.5979043	-0.1007202	0.9830628
O	0.8261608	0.0930235	-0.8024003
H	1.5185609	0.0780851	-0.1059611
N	-2.8102374	-0.3946634	-0.8860410
C	-4.2271046	-2.0658481	0.1344009
H	-4.9789139	-1.3524110	0.4471737
H	-4.4190155	-3.1057219	0.3658292
C	-3.0821458	-1.7101699	-0.4922788
C	-2.0361245	-2.7432040	-0.8532206
H	-1.0979416	-2.5841397	-0.3079652
H	-2.3973208	-3.7412795	-0.5966495
H	-1.8059685	-2.7317419	-1.9262990
C	-3.2833082	1.7300774	-1.7778916
C	-3.8140340	0.6728785	-0.7962570
C	-1.5023136	0.1006828	-1.3083586
C	-1.7506183	1.6116325	-1.6444606
H	-3.5992501	1.4812513	-2.7974749
H	-3.6408785	2.7384225	-1.5485072
H	-4.7939427	0.2810209	-1.0888137
H	-3.9012276	1.0707915	0.2274024
H	-1.1271370	-0.4321157	-2.1902607
H	-1.3979594	2.2390054	-0.8177428
H	-1.2084964	1.9115706	-2.5440641
C	2.5525328	2.7351815	1.0765341
H	3.0322827	3.1539050	0.1714962
O	2.6147787	1.5221450	1.3060558
C	1.8525494	3.7322886	1.9568060
H	1.0688366	4.2520074	1.3895905
H	1.4102821	3.2341214	2.8221417
H	2.5609452	4.5001236	2.2950634
