31
-0.00680231 (energy)
C	-0.4700281	0.0827949	0.1115761
O	0.1136282	-0.4308734	1.0655906
O	0.1686587	0.3618506	-1.0842784
H	1.1164488	0.1096168	-1.0319295
N	-2.7747209	-0.0678183	1.0651698
C	-3.6111378	-1.9872299	2.2726210
H	-3.8412886	-1.4237930	3.1679456
H	-3.8469745	-3.0435448	2.2901220
C	-3.0343828	-1.4386647	1.1787312
C	-2.6782100	-2.2859498	-0.0241187
H	-1.5952038	-2.3229666	-0.1929958
H	-3.0193508	-3.3115864	0.1312471
H	-3.1475442	-1.9081643	-0.9415085
C	-3.2086956	2.2338158	1.2839464
C	-3.2547468	0.9046349	2.0547274
C	-1.9189825	0.5420960	0.0502308
C	-1.9800314	2.0768779	0.3637692
H	-4.1212762	2.3487139	0.6878937
H	-3.1223759	3.1028961	1.9430988
H	-4.2682597	0.6364695	2.3713371
H	-2.6157476	0.9284386	2.9519061
H	-2.2814035	0.3430576	-0.9653566
H	-1.0725970	2.3836614	0.8965674
H	-2.0421827	2.6664102	-0.5536917
C	2.4628237	-1.6891986	-2.7136559
H	2.9319644	-2.6413412	-2.4007432
O	2.8992588	-0.6139419	-2.2877926
C	1.3018006	-1.8210249	-3.6590264
H	0.5119611	-2.4334505	-3.2039052
H	0.9024911	-0.8370003	-3.9136326
H	1.6170710	-2.3395342	-4.5742127
