31
-0.00649765 (energy)
C	-0.4798432	0.0827949	-0.0559119
O	-0.2576780	-0.4308733	1.0401908
O	0.5293324	0.3618505	-0.9612037
H	1.4020595	0.1096167	-0.5878484
N	-2.9716943	-0.0678183	0.0519215
C	-4.1706418	-1.9872298	0.9004831
H	-4.6931319	-1.4237929	1.6630967
H	-4.3982415	-3.0435447	0.8362679
C	-3.2545369	-1.4386646	0.0698248
C	-2.5084450	-2.2859499	-0.9386659
H	-1.4329927	-2.3229667	-0.7269485
H	-2.8821508	-3.3115865	-0.9093468
H	-2.6357090	-1.9081646	-1.9612521
C	-3.4543231	2.2338159	0.1090758
C	-3.7612198	0.9046350	0.8176227
C	-1.8204336	0.5420959	-0.6091294
C	-1.9850372	2.0768779	-0.3353799
H	-4.1080063	2.3487138	-0.7631515
H	-3.5986526	3.1028962	0.7579995
H	-4.8218973	0.6364696	0.7684966
H	-3.4676102	0.9284388	1.8792455
H	-1.8136465	0.3430574	-1.6874246
H	-1.3145556	2.3836615	0.4756476
H	-1.7296502	2.6664100	-1.2187681
C	3.8698598	2.5297513	0.0230512
H	4.9048704	2.1430858	0.0849042
O	2.9165287	1.7442044	-0.0226439
C	3.7397201	4.0269666	0.0009555
H	4.2885757	4.4410713	-0.8553866
H	2.6891092	4.3185055	-0.0606762
H	4.1901379	4.4584961	0.9046808
