31
-0.00333252 (energy)
C	-3.5899161	-0.2064328	-0.1150827
O	-4.6852113	0.0077936	0.4095867
O	-3.3140564	-1.3735985	-0.7958025
H	-4.0813868	-1.9842001	-0.7444051
N	-1.1267687	0.1669743	0.1225063
C	-1.7106664	-0.4320701	2.3952681
H	-2.7041940	-0.0046681	2.3524921
H	-1.4210126	-0.8826168	3.3358989
C	0.5314115	-1.0474036	1.4851901
H	1.3301948	-0.3037767	1.3661923
H	0.6424368	-1.5027247	2.4712949
H	0.6940591	-1.8276126	0.7310230
C	-0.7553746	1.3526162	-1.8688783
C	-0.2657874	0.1330748	-1.0706748
C	-2.4249498	0.7762959	-0.1565895
C	-2.2756883	1.3776615	-1.5928925
H	-0.2810580	2.2617737	-1.4820959
H	-0.5290990	1.2765587	-2.9367079
H	0.7885728	0.2146686	-0.7969296
H	-0.4007831	-0.7962952	-1.6466388
H	-2.6581726	1.5474126	0.5876168
H	-2.7978767	0.7450516	-2.3180759
H	-2.7051110	2.3809567	-1.6504547
C	-0.8407716	-0.4225381	1.3568720
C	3.8846533	1.2671240	-1.5731300
H	4.4886363	1.7211778	-0.7646607
O	3.0219583	0.4239271	-1.3033367
C	4.1974499	1.7492371	-2.9619437
H	5.2514841	1.5543227	-3.2008310
H	3.5571714	1.2508790	-3.6928742
H	4.0538400	2.8360360	-3.0256439
