31
-0.00315875 (energy)
C	0.0138227	0.0373671	0.4877789
O	1.1516318	0.0830781	0.0143409
O	-1.1081074	-0.1042519	-0.3015061
H	-0.8553486	-0.1088795	-1.2503810
N	-1.4539846	0.9214171	2.3117782
C	-0.3252773	2.9499994	1.6217705
H	0.5959901	2.4545881	1.3435020
H	-0.3474213	4.0257845	1.5039829
C	-2.6738377	3.0593021	2.4620728
H	-2.9094540	2.9710397	3.5306657
H	-2.5494757	4.1196270	2.2333986
H	-3.5430617	2.6912890	1.9026407
C	-1.9930813	-1.1138439	3.3492658
C	-2.6294621	0.1470092	2.7415040
C	-0.3240211	0.0589817	1.9743923
C	-0.7615543	-1.3654438	2.4502730
H	-1.6797205	-0.9094672	4.3794015
H	-2.6776361	-1.9673323	3.3629594
H	-3.2214982	0.7038053	3.4713950
H	-3.2829517	-0.1101060	1.8926635
H	0.5866857	0.3983398	2.4826305
H	-1.0470264	-1.9755596	1.5871211
H	0.0513501	-1.8778592	2.9707875
C	-1.4144220	2.3022996	2.1006476
C	3.0050487	-2.2453333	2.1972772
H	3.3307749	-3.2994922	2.1122225
O	2.3478588	-1.8769130	3.1772670
C	3.4172626	-1.3482694	1.0639485
H	3.0189630	-1.7315201	0.1149894
H	3.0551796	-0.3314750	1.2300868
H	4.5111226	-1.3395112	0.9679957
