31
-0.00303082 (energy)
C	1.4928430	2.7242639	-0.6128285
O	1.7663597	3.0892995	0.5329377
O	0.5907591	3.4008560	-1.4066934
H	0.1933882	4.1466550	-0.9065412
N	1.1843471	0.7174317	-2.0758498
C	0.0114207	0.0026607	-0.0812112
H	0.6460754	0.5516636	0.6024618
H	-0.7820600	-0.5833447	0.3645061
C	-0.7648531	-0.7726077	-2.3240105
H	-0.2306201	-1.5525577	-2.8821047
H	-1.5365791	-1.2593938	-1.7244065
H	-1.2626880	-0.1263184	-3.0577808
C	2.8480736	1.1799626	-3.6656209
C	1.3535764	0.8440648	-3.5323677
C	2.1347933	1.5481024	-1.3402686
C	3.1303999	2.0648211	-2.4305233
H	3.4392755	0.2582841	-3.6194304
H	3.0837179	1.6907730	-4.6041250
H	1.0924556	-0.0868667	-4.0407493
H	0.7287171	1.6503182	-3.9485328
H	2.6439906	0.9605633	-0.5667230
H	2.9161743	3.1127554	-2.6644208
H	4.1654969	2.0015352	-2.0857224
C	0.1664407	0.0133486	-1.4269188
C	1.8864638	2.4361484	3.6151021
H	1.8487083	1.7229575	2.7698115
O	2.4253752	2.1089831	4.6783751
C	1.2515501	3.7744213	3.3601738
H	0.1934096	3.6460930	3.0957549
H	1.3345883	4.4113954	4.2433190
H	1.7347370	4.2647483	2.5046487
