31
-0.00299349 (energy)
C	-2.4932094	-0.0595694	0.2081701
O	-3.4250705	-0.4598309	0.9097883
O	-2.5765010	-0.0047902	-1.1672627
H	-3.4375905	-0.3682610	-1.4684039
N	0.0000000	0.0000000	0.0000000
C	-0.3396269	-2.3045940	0.6623721
H	-1.2158464	-2.1008974	1.2643243
H	-0.0096878	-3.3348994	0.6264701
C	1.5560378	-1.7133365	-0.8511207
H	2.4649997	-1.2261087	-0.4748316
H	1.7194996	-2.7925140	-0.8246076
H	1.4333111	-1.4144782	-1.8997247
C	0.3008214	2.3277408	0.0205524
C	0.6405501	1.0650517	-0.7883397
C	-1.1685877	0.4865800	0.7294410
C	-1.1193859	2.0406172	0.5578796
H	1.0090739	2.4367567	0.8497920
H	0.3389799	3.2390378	-0.5838704
H	1.7178449	0.9021176	-0.8668119
H	0.2265695	1.1253718	-1.8074906
H	-1.1174459	0.1895503	1.7839621
H	-1.8679304	2.3586834	-0.1751155
H	-1.3323872	2.5515855	1.5001430
C	0.3424669	-1.3547090	-0.0213975
C	4.4253516	2.0070117	-1.2315599
H	3.9562110	2.7947107	-0.6118662
O	3.9889165	0.8509471	-1.1991386
C	5.5863746	2.4542235	-2.0748304
H	6.3762141	2.8740548	-1.4376945
H	5.9856842	1.6166233	-2.6506381
H	5.2711042	3.2544750	-2.7574836
