31
-0.00387977 (energy)
C	-3.5899161	-0.2321105	0.0445340
O	-4.6852113	0.2692474	0.3087520
O	-3.3140564	-1.5637695	0.2733119
H	-4.0813868	-1.9984798	0.7051719
N	-1.1267687	0.2066552	-0.0134837
C	-1.7106664	1.2086637	2.1126112
H	-2.7041940	1.5085768	1.8051141
H	-1.4210126	1.4681507	3.1227820
C	0.5314115	0.1523041	1.8109797
H	1.3301948	0.6454650	1.2418280
H	0.6424368	0.4373638	2.8590546
H	0.6940591	-0.9301399	1.7347629
C	-0.7553746	-0.1651277	-2.3010888
C	-0.2657874	-0.5862753	-0.9057233
C	-2.4249498	0.4940234	-0.6189479
C	-2.2756883	0.0314584	-2.1057702
H	-0.2810580	0.7799463	-2.5891915
H	-0.5290990	-0.9097787	-3.0702048
H	0.7885728	-0.3478108	-0.7484698
H	-0.4007831	-1.6684365	-0.7495498
H	-2.6581726	1.5630996	-0.5445170
H	-2.7978767	-0.9192878	-2.2546592
H	-2.7051110	0.7630269	-2.7947711
C	-0.8407716	0.5484975	1.3110265
C	4.3086011	-0.5018733	-0.9153726
H	4.8529213	0.0324403	-0.1136199
O	3.0733673	-0.5469592	-0.9020735
C	5.1712998	-1.1363015	-1.9700431
H	5.8579288	-1.8601281	-1.5110634
H	4.5538827	-1.6390017	-2.7174824
H	5.7937217	-0.3741763	-2.4574541
