31
-0.00656821 (energy)
C	1.0595519	-2.2300909	-0.4086814
O	0.8359505	-3.4405425	-0.4838609
O	2.2367473	-1.7282281	0.1052236
H	2.8047007	-2.4616913	0.4272992
N	0.0000000	0.0000000	0.0000000
C	-1.0518398	-1.3209786	1.7360546
H	-1.0432629	-2.2435130	1.1699661
H	-1.4927668	-1.3667408	2.7235601
C	-0.5928658	1.1022457	2.1247934
H	-1.2092540	1.8872656	1.6676224
H	-1.0158233	0.8731216	3.1049239
H	0.4103703	1.5195936	2.2773921
C	0.5223362	1.0201226	-2.0483671
C	0.6367403	1.2174142	-0.5278102
C	0.1348004	-1.1295037	-0.9167833
C	0.7101187	-0.5030474	-2.2295846
H	-0.4743331	1.3258708	-2.3864691
H	1.2650593	1.5986159	-2.6059989
H	0.1136927	2.1138273	-0.1870254
H	1.6909799	1.2953856	-0.2176712
H	-0.8369170	-1.6096843	-1.0842610
H	1.7751113	-0.7403611	-2.3203582
H	0.2011553	-0.8953096	-3.1135559
C	-0.5550824	-0.1484959	1.2738957
C	5.4164723	-3.6195053	-1.0492507
H	5.2623745	-3.2898246	-2.0943092
O	4.9864671	-2.9353696	-0.1138011
C	6.1615428	-4.9142820	-0.8834155
H	7.1547175	-4.8403393	-1.3462150
H	6.2672539	-5.1616628	0.1749817
H	5.6304876	-5.7244191	-1.4005921
