31
-0.0028009 (energy)
C	1.4928430	-2.3503710	1.5076234
O	1.7663597	-3.0852674	0.5558049
O	0.5907591	-2.7146419	2.4850205
H	0.1933882	-3.5865259	2.2701094
N	1.1843471	0.0358170	2.1960368
C	0.0114207	0.0252756	0.0772236
H	0.6460754	-0.7244483	-0.3774489
H	-0.7820600	0.4234963	-0.5420392
C	-0.7648531	1.5208720	1.9196082
H	-0.2306201	2.4446647	2.1772867
H	-1.5365791	1.7732248	1.1896741
H	-1.2626880	1.1645229	2.8301707
C	2.8480736	0.1449139	3.8481279
C	1.3535764	0.4149792	3.6080271
C	2.1347933	-0.9963417	1.7889227
C	3.1303999	-1.1090094	2.9901551
H	3.4392755	0.9952102	3.4894905
H	3.0837179	-0.0141037	4.9047407
H	1.0924556	1.4636455	3.7673522
H	0.7287171	-0.2003144	4.2748492
H	2.6439906	-0.7088036	0.8610774
H	2.9161743	-2.0137479	3.5683615
H	4.1654969	-1.1674689	2.6445033
C	0.1664407	0.4754913	1.3454306
C	3.0991458	-1.0787303	-1.8560869
H	2.7265281	-2.0023932	-1.3738154
O	2.9577537	0.0136718	-1.2951252
C	3.7608587	-1.2691736	-3.1921054
H	3.0613434	-1.7390143	-3.8963604
H	4.0963770	-0.3102492	-3.5926901
H	4.6177610	-1.9490340	-3.0955565
