31
-0.00278321 (energy)
C	-1.7710734	0.6190164	1.6562288
O	-1.9731310	0.9045459	2.8388058
O	-2.6777144	-0.0998995	0.9059517
H	-3.4393356	-0.3699006	1.4638985
N	0.0000000	0.0000000	0.0000000
C	0.6465751	-1.3778674	1.8837884
H	0.2941630	-0.6819529	2.6341938
H	1.1041462	-2.2882379	2.2492090
C	1.0545684	-2.1845636	-0.4435649
H	1.8710455	-1.7842430	-1.0586296
H	1.4330550	-3.0616837	0.0850700
H	0.2614706	-2.5156479	-1.1257140
C	-0.2688885	1.7923886	-1.4914205
C	-0.2196330	0.2567441	-1.4324674
C	-0.5615638	1.0569958	0.8377634
C	-0.9691494	2.1817933	-0.1700017
H	0.7505773	2.1938492	-1.5171747
H	-0.8050879	2.1639659	-2.3698657
H	0.5940440	-0.1539097	-2.0345992
H	-1.1656122	-0.1828508	-1.7868216
H	0.1798688	1.4086272	1.5654240
H	-2.0552392	2.1826707	-0.3084756
H	-0.6755037	3.1688539	0.1957879
C	0.5472480	-1.1622777	0.5500982
C	-0.6790650	6.3101988	0.9583308
H	-0.1311946	7.1592310	0.5071489
O	-0.1232963	5.2139714	1.0903111
C	-2.0934056	6.6020972	1.3748811
H	-2.6799513	6.9389223	0.5096875
H	-2.5557142	5.7125352	1.8079247
H	-2.1101604	7.4203515	2.1069962
