31
-0.00269013 (energy)
C	-0.1481511	0.3216506	0.3377983
O	1.0678526	0.4117830	0.1532617
O	-0.9321830	-0.5852258	-0.3438343
H	-0.3891636	-1.0771775	-0.9975816
N	-2.2170751	1.6312446	0.8549960
C	-1.1719721	3.0736492	-0.7858774
H	-0.1588780	2.8106586	-0.5100592
H	-1.2807674	3.8020411	-1.5791534
C	-3.6617509	2.9586838	-0.6389918
H	-4.2162722	3.4572922	0.1666705
H	-3.5954289	3.6530690	-1.4789187
H	-4.2557068	2.0937405	-0.9599865
C	-2.8190220	0.5647868	2.8573998
C	-3.3691853	0.9588051	1.4767566
C	-0.9459372	1.1203702	1.3625956
C	-1.3434030	0.2075799	2.5691280
H	-2.8795460	1.4221161	3.5374496
H	-3.3668550	-0.2684113	3.3078498
H	-4.2252325	1.6333729	1.5503158
H	-3.6803758	0.0689091	0.9067280
H	-0.2931947	1.9457672	1.6716326
H	-1.2628773	-0.8459154	2.2820214
H	-0.6868715	0.3740154	3.4267901
C	-2.2735749	2.5507635	-0.1958468
C	3.4948733	1.1337754	-3.1480520
H	4.0659447	2.0765830	-3.0502046
O	2.9786345	0.8313372	-4.2297363
C	3.4106680	0.2971305	-1.9022539
H	2.9434818	0.8725267	-1.0918817
H	2.8319880	-0.6099098	-2.0892938
H	4.4185260	0.0278546	-1.5594330
