31
-0.00194041 (energy)
C	-2.5709433	0.2043542	1.8369111
O	-2.3671135	1.2912918	2.3826791
O	-2.5503606	-0.9857704	2.5332828
H	-2.3078260	-0.8244261	3.4710553
N	-2.2258445	-1.0939759	-0.2745390
C	-0.0498369	-0.0611306	-0.0226298
H	-0.4262020	0.8355036	0.4527604
H	1.0196009	-0.1076318	-0.1833111
C	-0.2392174	-2.3202260	-1.0687721
H	-0.6010149	-2.4519694	-2.0968490
H	0.8483346	-2.2312602	-1.1056818
H	-0.4861962	-3.2341473	-0.5140670
C	-4.4742490	-1.5067797	-0.8070454
C	-3.1249985	-2.2135934	-0.5971811
C	-2.9349386	0.0092852	0.3692325
C	-4.4479588	-0.3633954	0.2322478
H	-4.5235763	-1.0993438	-1.8232674
H	-5.3279406	-2.1763603	-0.6652076
H	-2.7906589	-2.7402906	-1.4938843
H	-3.1843742	-2.9416849	0.2274668
H	-2.7013526	0.9599786	-0.1252131
H	-4.8320057	-0.7221823	1.1927408
H	-5.0449597	0.5016060	-0.0672203
C	-0.8356367	-1.0916965	-0.4169990
C	4.2492421	0.2316948	0.3336419
H	4.0481787	0.8284760	1.2435916
O	3.3100853	-0.2090980	-0.3384431
C	5.7011128	0.0184838	0.0085408
H	6.2042342	-0.4888259	0.8425388
H	5.8057859	-0.5775283	-0.9005191
H	6.2043006	0.9854532	-0.1240697
