31
-0.00376655 (energy)
C	-1.8512934	-1.2107920	-0.7225774
O	-2.6065624	-1.4965051	-1.6546608
O	-2.0353209	-1.7021400	0.5527518
H	-2.8538726	-2.2431918	0.5915886
N	-0.4373186	0.6118022	0.2478873
C	-2.4261142	1.8576480	-0.3502744
H	-2.6690235	1.2410773	-1.2060986
H	-3.0901177	2.6893663	-0.1527344
C	-1.0836850	2.5413976	1.6407457
H	-0.1271015	3.0702069	1.5382526
H	-1.8724282	3.2910264	1.7301184
H	-1.0465738	1.9744425	2.5794325
C	1.6392887	-0.4804553	0.1848930
C	0.6880114	0.2689363	1.1323048
C	-0.5950438	-0.3543668	-0.8365857
C	0.6820618	-1.2534855	-0.7501419
H	2.2341382	0.2404915	-0.3874130
H	2.3265966	-1.1456172	0.7163184
H	1.1460235	1.1675236	1.5518704
H	0.3710193	-0.3771942	1.9664022
H	-0.6698633	0.1582197	-1.8032883
H	0.4271359	-2.2216082	-0.3068384
H	1.1063460	-1.4377353	-1.7402699
C	-1.3580054	1.6426005	0.4546931
C	2.2279839	2.6440481	-2.5213126
H	2.2019851	3.3421203	-1.6630573
O	2.4360676	1.4399374	-2.3346829
C	1.9976292	3.2682397	-3.8690513
H	2.7535955	4.0412856	-4.0613060
H	2.0401481	2.5100105	-4.6538171
H	1.0202559	3.7682912	-3.8914863
