31
-0.00183132 (energy)
C	2.5709434	-1.8444900	0.1177266
O	2.3671135	-2.5707114	-0.8579262
O	2.5503607	-2.3236192	1.4106943
H	2.3078262	-3.2751619	1.4146437
N	2.2258445	0.4603352	1.0296826
C	0.0498369	0.0329012	0.0562723
H	0.4262020	-0.5909657	-0.7441894
H	-1.0196009	0.1992163	0.0741651
C	0.2392175	1.4554382	2.0993861
H	0.6010150	2.4907734	2.0506042
H	-0.8483345	1.4763385	2.0053626
H	0.4861964	1.0678612	3.0957464
C	4.4742491	1.0564343	1.3437461
C	3.1249985	0.9724953	2.0762643
C	2.9349386	-0.3652353	0.0549722
C	4.4479589	-0.1656163	0.3982038
H	4.5235763	1.9864670	0.7660348
H	5.3279406	1.0330229	2.0277841
H	2.7906590	1.9470356	2.4392488
H	3.1843743	0.2868074	2.9364931
H	2.7013525	-0.0433878	-0.9671376
H	4.8320058	-1.0492146	0.9183278
H	5.0449597	-0.0209039	-0.5056584
C	0.8356367	0.6002350	1.0026999
C	1.7204385	0.9230695	-3.7196391
H	1.8162659	-0.1618905	-3.9152455
O	1.8385204	1.3580710	-2.5686211
C	1.4465639	1.7755252	-4.9268633
H	0.5158655	1.4537814	-5.4129993
H	1.3676924	2.8269461	-4.6424868
H	2.2491820	1.6522753	-5.6660703
