31
-0.00181152 (energy)
C	-2.1622955	-1.2581487	1.9409515
O	-2.1993751	-0.3944693	2.8204545
O	-1.6713548	-2.5258480	2.1726180
H	-1.3308682	-2.5937305	3.0911674
N	-1.8145250	-1.6357060	-0.5084325
C	-0.0325945	-0.0640182	-0.0396490
H	-0.5705469	0.4571798	0.7417340
H	0.9586437	0.3050738	-0.2696400
C	0.2796849	-1.8077306	-1.7991203
H	-0.1970829	-1.7255212	-2.7845796
H	1.2689861	-1.3508644	-1.8669670
H	0.4131627	-2.8759652	-1.5869723
C	-3.8961264	-2.5933844	-1.0174321
C	-2.3829998	-2.8323032	-1.1496115
C	-2.6975480	-1.0956307	0.5226012
C	-4.0323603	-1.8935053	0.3536108
H	-4.2369448	-1.9306996	-1.8210713
H	-4.4757498	-3.5199882	-1.0692718
H	-2.0661620	-2.9074704	-2.1923163
H	-2.0821123	-3.7565936	-0.6311127
H	-2.8441976	-0.0180644	0.3804687
H	-4.1227204	-2.6415426	1.1479924
H	-4.9007815	-1.2327137	0.4129203
C	-0.5331942	-1.1209320	-0.7233210
C	3.7312970	-0.2721188	3.1197040
H	3.2575586	0.5386930	3.7051433
O	4.3531257	-1.1712302	3.6967135
C	3.5555391	-0.1808411	1.6297860
H	3.9684594	0.7665154	1.2582227
H	4.0526833	-1.0174170	1.1342405
H	2.4874670	-0.1826467	1.3747722
