31
-0.00163412 (energy)
C	0.6456499	0.8412487	2.2668068
O	1.5915728	0.9798904	3.0458132
O	-0.6311859	0.5534939	2.7011352
H	-0.6379145	0.4352154	3.6759363
N	0.0000000	0.0000000	0.0000000
C	1.4481884	-1.7915108	0.7473127
H	2.0887890	-1.1525036	1.3413666
H	1.7047023	-2.8428884	0.7253195
C	-0.4807516	-2.2978726	-0.7548787
H	-0.4544770	-2.0639664	-1.8271630
H	-0.1211078	-3.3207480	-0.6267031
H	-1.5304984	-2.2650588	-0.4372262
C	-0.8172566	2.0068647	-0.9021523
C	-1.1995080	0.5369754	-0.6625383
C	0.7140682	1.0268814	0.7550249
C	0.0233215	2.3685616	0.3431400
H	-0.2095705	2.0870190	-1.8106881
H	-1.6901724	2.6566935	-1.0161077
H	-1.4043178	0.0060914	-1.5949999
H	-2.0910774	0.4602329	-0.0199641
H	1.7811056	1.0214025	0.5015331
H	-0.6321532	2.7133379	1.1495202
H	0.7601886	3.1521316	0.1498436
C	0.3770281	-1.3447903	0.0486491
C	6.1622942	0.0836745	1.4134202
H	6.3723870	-0.9335951	1.7950044
O	7.0291844	0.9622671	1.4811588
C	4.7904249	0.2856822	0.8335533
H	4.0247593	0.0617034	1.5882959
H	4.6709852	1.3130707	0.4831481
H	4.6266752	-0.4100402	-0.0000951
