31
-0.0063142 (energy)
C	-0.4663851	0.0570624	0.1369103
O	-0.2412329	0.6682866	-0.9102544
O	0.5065542	-0.6698025	0.7902176
H	1.3423264	-0.6553754	0.2749033
N	-2.1972314	-1.2556437	1.3794680
C	-2.4379604	-2.1872682	-0.8429996
H	-2.1735561	-1.2722728	-1.3572694
H	-2.6874629	-3.0352611	-1.4677671
C	-2.8445825	-3.6247886	1.1574963
H	-3.7628327	-3.5391420	1.7530441
H	-3.0117018	-4.3857428	0.3925999
H	-2.0519798	-3.9839599	1.8258714
C	-2.3782014	0.1088742	3.2806870
C	-2.1299479	-1.3452123	2.8469725
C	-1.7907361	0.0603850	0.8923628
C	-1.6753662	0.9379310	2.1821258
H	-3.4547596	0.3141663	3.2853743
H	-1.9845264	0.3246505	4.2785377
H	-2.8901374	-2.0273712	3.2343233
H	-1.1443370	-1.6973523	3.1908554
H	-2.5335147	0.4594935	0.1910433
H	-0.6215177	1.0840880	2.4405988
H	-2.1256245	1.9227206	2.0345605
C	-2.4738322	-2.3105112	0.5055547
C	4.0735516	1.3678642	0.6833536
H	5.1085621	1.0319029	0.4821918
O	3.1202205	0.7954727	0.1434092
C	3.9434119	2.5290004	1.6288188
H	4.4922674	3.3966691	1.2390041
H	2.8928010	2.7919482	1.7690038
H	4.3938296	2.2786677	2.5984944
