31
-0.00102309 (energy)
C	1.9276119	1.6929889	1.8557624
O	1.2468183	2.7091067	2.0134562
O	3.1114518	1.7010020	1.1485052
H	3.2752437	2.5938089	0.7738851
N	1.8145252	-0.7847457	1.5225673
C	0.0609674	-0.0501633	0.0223471
H	-0.2174757	0.8098539	0.6176953
H	-0.5084526	-0.2125681	-0.8837785
C	1.3969862	-2.0856969	-0.5303257
H	1.2315220	-3.0419093	-0.0170271
H	0.7705035	-2.0731788	-1.4244226
H	2.4461109	-2.0622690	-0.8508516
C	3.0177482	-1.4523115	3.4241201
C	2.9641071	-1.6239707	1.8971095
C	1.6203877	0.3244075	2.4534439
C	2.5970921	0.0194349	3.6366287
H	2.2967978	-2.1286675	3.8973193
H	4.0081969	-1.6642667	3.8380424
H	2.8036763	-2.6638871	1.6036723
H	3.8969467	-1.2738505	1.4270955
H	0.5764734	0.3715518	2.7864261
H	3.4741114	0.6718528	3.5737404
H	2.1171680	0.1925888	4.6030701
C	1.0560248	-0.9069800	0.3552140
C	3.7999415	6.5207625	1.0543838
H	4.0416933	6.1516735	2.0692297
O	3.7158083	7.7353158	0.8403881
C	3.5937526	5.4574813	0.0122718
H	2.7772083	4.7874612	0.3128967
H	3.3607614	5.9094693	-0.9541643
H	4.4954970	4.8373875	-0.0780281
