31
-0.000831632 (energy)
C	2.4167234	0.6372490	-0.1278205
O	3.5647038	0.2379460	0.0808431
O	2.0465285	1.9514781	0.0658585
H	2.8014210	2.4655405	0.4266204
N	0.0000000	0.0000000	0.0000000
C	0.8016133	-0.8543233	2.1196190
H	1.7946261	-1.0871703	1.7572554
H	0.6005561	-1.0900838	3.1567646
C	-1.5353200	0.0038641	1.9297565
H	-2.3255225	-0.5771589	1.4366153
H	-1.5541628	-0.2413002	2.9935168
H	-1.7919691	1.0651782	1.8216271
C	-0.5483681	0.2365074	-2.2699449
C	-0.9798750	0.6799234	-0.8623620
C	1.2756320	-0.2094313	-0.6806930
C	0.9924709	0.1716652	-2.1711530
H	-0.9601478	-0.7556953	-2.4870063
H	-0.8850845	0.9248963	-3.0509622
H	-1.9983618	0.3649817	-0.6241062
H	-0.9254653	1.7754007	-0.7591336
H	1.6012368	-1.2518505	-0.5796952
H	1.4230859	1.1535149	-2.3932084
H	1.4356923	-0.5536027	-2.8580736
C	-0.1702198	-0.3031973	1.3535414
C	2.1594071	-0.0594965	6.4553794
H	1.3528093	-0.8039224	6.5961383
O	2.6104713	0.5567875	7.4273604
C	2.6311593	0.1221619	5.0399190
H	1.7941183	0.4311946	4.3996785
H	3.4242058	0.8715541	4.9944711
H	3.0008930	-0.8312810	4.6398476
