31
-0.000740501 (energy)
C	-0.2837752	0.4133231	3.1264018
O	0.3391066	-0.5687067	3.5368630
O	-1.6452652	0.5480627	3.2994444
H	-2.0115383	-0.2526565	3.7341455
N	-0.4113195	2.1005864	1.2825333
C	-0.0323393	0.0746214	0.0108900
H	0.5636429	-0.4060841	0.7759567
H	-0.1785846	-0.4824198	-0.9056225
C	-1.4110404	1.9138030	-0.9639868
H	-0.9543455	2.8306886	-1.3588876
H	-1.5058412	1.2051091	-1.7891004
H	-2.4207465	2.1715011	-0.6204268
C	-0.1107471	4.0454464	2.5617787
C	-1.0511992	3.4028757	1.5289387
C	0.3357545	1.6290803	2.4461500
C	0.3480921	2.8488584	3.4253716
H	0.7456995	4.4986908	2.0497112
H	-0.6034107	4.8208601	3.1561368
H	-1.1169199	3.9887220	0.6093005
H	-2.0679149	3.2886582	1.9375100
H	1.3494761	1.3256070	2.1578284
H	-0.3641674	2.6804743	4.2396812
H	1.3369519	2.9938013	3.8674874
C	-0.5806347	1.3060197	0.1454432
C	2.7427833	2.7283757	-1.7239061
H	2.6118430	3.4418317	-0.8881920
O	2.8066885	3.1415138	-2.8871967
C	2.8311805	1.2806717	-1.3296760
H	1.9228823	0.9800227	-0.7905550
H	2.9592346	0.6511200	-2.2127635
H	3.6733078	1.1273996	-0.6418224
