31
-0.000695449 (energy)
C	1.8512934	1.2311665	0.6872877
O	2.6065624	2.1812309	0.4686807
O	2.0353210	0.3723731	1.7504723
H	2.8538727	0.6092654	2.2384552
N	0.4373186	-0.5205778	-0.4058926
C	2.4261141	-0.6254776	-1.7839077
H	2.6690234	0.4239733	-1.6778539
H	3.0901176	-1.2124114	-2.4054268
C	1.0836849	-2.6916263	-1.3805419
H	0.1271014	-2.8672694	-1.8897507
H	1.8724282	-3.1438398	-1.9850531
H	1.0465738	-3.2210753	-0.4202009
C	-1.6392887	0.0801057	0.5085331
C	-0.6880113	-1.1150729	0.3332469
C	0.5950438	0.9016879	-0.1114023
C	-0.6820618	1.2763847	0.7104793
H	-2.2341382	0.2152637	-0.4019781
H	-2.3265965	-0.0475412	1.3502929
H	-1.1460234	-1.9277210	-0.2351697
H	-0.3710192	-1.5143571	1.3098610
H	0.6698633	1.4825836	-1.0386666
H	-0.4271358	1.3765341	1.7705499
H	-1.1063460	2.2259856	0.3749802
C	1.3580054	-1.2150760	-1.1951872
C	6.7562238	1.8641559	0.7030279
H	6.5735806	2.8669635	1.1338423
O	7.9131930	1.4730523	0.5120501
C	5.5246673	1.0623444	0.3876788
H	4.8916143	1.6073222	-0.3252657
H	5.7974928	0.0914604	-0.0312809
H	4.9257429	0.9170486	1.2965198
