31
-0.000328284 (energy)
C	3.2970513	0.5645160	1.3244359
O	4.4296095	0.1449735	1.5737121
O	2.6042698	1.3791542	2.1951667
H	3.1227118	1.5121091	3.0184606
N	1.1223330	-0.0140025	0.2294962
C	1.6042268	-2.0839378	1.3906952
H	2.6792561	-1.9912801	1.3051040
H	1.2361514	-2.9717076	1.8887547
C	-0.7639470	-1.3588666	1.0747598
H	-1.2711538	-1.4495670	0.1053730
H	-0.9630739	-2.2696290	1.6430089
H	-1.2243697	-0.5182508	1.6089174
C	1.0544188	1.7147503	-1.3567240
C	0.2309927	1.0612601	-0.2346609
C	2.5308826	0.3182814	0.0294536
C	2.5078733	1.6179484	-0.8407314
H	0.9379045	1.1403389	-2.2828019
H	0.7527516	2.7477255	-1.5547252
H	-0.7160411	0.6568063	-0.5990969
H	0.0106058	1.7847077	0.5664260
H	3.0539702	-0.5029107	-0.4754024
H	2.7424222	2.4876031	-0.2182730
H	3.2459139	1.5708223	-1.6453392
C	0.7283321	-1.1682565	0.9117269
C	3.4307279	-6.1736144	0.9289262
H	2.5981056	-6.3256234	1.6418190
O	4.1903941	-7.1094011	0.6546589
C	3.5446235	-4.7895139	0.3541463
H	3.6746220	-4.0553549	1.1604700
H	4.3890541	-4.7303824	-0.3357936
H	2.6186799	-4.5217646	-0.1719261
