31
-0.000264092 (energy)
C	1.6627759	-1.0732682	1.2242118
O	2.5538918	-0.9788970	2.0714715
O	1.3935446	-2.2546330	0.5656943
H	2.0336080	-2.9473523	0.8390640
N	0.4805004	0.1499512	-0.6112542
C	2.7799714	0.7441658	-1.0851518
H	3.0969089	0.7247421	-0.0503703
H	3.5350248	1.0079060	-1.8145444
C	1.1471680	0.5047888	-2.9587692
H	0.3913837	1.2731109	-3.1677364
H	2.0297314	0.7313707	-3.5602583
H	0.7417135	-0.4560496	-3.2998623
C	-1.6944963	0.0920086	0.2692712
C	-0.8840614	-0.2488269	-0.9921297
C	0.7004397	0.0413280	0.8289782
C	-0.7199635	-0.2345844	1.4232954
H	-1.9450289	1.1589561	0.2701518
H	-2.6258226	-0.4780558	0.3392943
H	-1.2268282	0.3088930	-1.8666174
H	-0.9467713	-1.3240947	-1.2235464
H	1.1367159	0.9666257	1.2243818
H	-0.8093963	-1.2898970	1.7009354
H	-0.8997507	0.3656100	2.3187068
C	1.5180965	0.4666040	-1.4922213
C	4.3833907	-1.3734231	5.8443593
H	5.4427549	-1.6899439	5.7980447
O	3.7784195	-1.3892675	6.9222141
C	3.7797215	-0.9436197	4.5367162
H	3.8383961	-1.7619375	3.8066750
H	2.7372307	-0.6493640	4.6752917
H	4.3478517	-0.1029810	4.1167543
