31
0.000106585 (energy)
C	2.8935571	0.0774875	-2.1365109
O	3.5384289	-0.4020109	-3.0719595
O	3.4970594	0.5451896	-0.9881235
H	4.4656561	0.3885432	-1.0275492
N	0.7437825	-0.0916504	-0.8665355
C	1.3165993	-2.4339068	-1.0922624
H	1.8119052	-2.3175632	-2.0476344
H	1.2749255	-3.4384839	-0.6913059
C	0.0901697	-1.6445064	0.9341897
H	-0.9791837	-1.3981870	0.9024700
H	0.1832799	-2.6946957	1.2178788
H	0.5436434	-1.0372786	1.7276532
C	-0.0689835	2.0753651	-1.2573657
C	0.2388732	1.0775170	-0.1288139
C	1.3836850	0.2890128	-2.1235406
C	1.0489848	1.8079212	-2.2902111
H	-1.0510203	1.8523323	-1.6898058
H	-0.0749847	3.1137647	-0.9124953
H	-0.6510194	0.8220993	0.4509467
H	0.9948863	1.4833475	0.5621512
H	0.9911426	-0.3099844	-2.9541846
H	1.9304046	2.4122359	-2.0521569
H	0.7492585	2.0388291	-3.3154741
C	0.7600919	-1.4096310	-0.4021661
C	-4.2072623	-0.4047903	-3.6293864
H	-4.4010440	-1.4912205	-3.7112454
O	-4.8973259	0.3976486	-4.2680693
C	-3.0808621	-0.0166389	-2.7130681
H	-2.1450026	-0.4852474	-3.0456640
H	-2.9610619	1.0686361	-2.6929981
H	-3.2763012	-0.3852795	-1.6973314
