31
0.00018537 (energy)
C	-3.5899161	-0.2028807	0.1212344
O	-4.6852113	0.3586095	0.1980435
O	-3.3140565	-1.3759843	0.7916696
H	-4.0813871	-1.6367735	1.3461648
N	-1.1267687	0.1895808	-0.0833509
C	-1.7106664	1.8583280	1.5718177
H	-2.7041940	2.0349841	1.1802886
H	-1.4210126	2.4476648	2.4323180
C	0.5314114	0.7625105	1.6496732
H	1.3301947	1.0312688	0.9461746
H	0.6424367	1.3888417	2.5370453
H	0.6940589	-0.2807219	1.9482705
C	-0.7553745	-0.9421879	-2.1058392
C	-0.2657874	-0.8606941	-0.6505836
C	-2.4249497	0.2525376	-0.7505870
C	-2.2756882	-0.6906545	-1.9895363
H	-0.2810578	-0.1526458	-2.6998015
H	-0.5290989	-1.9049842	-2.5738863
H	0.7885728	-0.5828270	-0.5843732
H	-0.4007832	-1.8241786	-0.1337076
H	-2.6581724	1.2825976	-1.0462904
H	-2.7978766	-1.6349866	-1.8042719
H	-2.7051108	-0.2388571	-2.8871966
C	-0.8407716	0.9638166	1.0443647
C	3.0940495	2.7023662	-2.5908134
H	3.1200483	3.6688016	-2.0523809
O	2.8859657	2.6770690	-3.8090389
C	3.3244042	1.4834924	-1.7420724
H	2.5684379	1.4283963	-0.9473862
H	3.2818852	0.5789838	-2.3525094
H	4.3017775	1.5482312	-1.2457221
