31
-0.00623391 (energy)
C	0.0138227	-0.2019438	-0.4455819
O	1.1516318	-0.0829727	0.0149384
O	-1.1081074	0.2010859	0.2476667
H	-0.8553486	0.5299689	1.1377348
N	-1.4539846	-1.6565236	-1.8572177
C	-0.3252773	-3.3267709	-0.5150064
H	0.5959901	-2.7660631	-0.4229602
H	-0.3474213	-4.2973924	-0.0363820
C	-2.6738377	-3.7168822	-1.2672486
H	-2.9094540	-3.9994230	-2.3015849
H	-2.5494757	-4.6350504	-0.6897126
H	-3.5430617	-3.1797259	-0.8674222
C	-1.9930813	-0.0988456	-3.5282374
C	-2.6294621	-1.0757932	-2.5258909
C	-0.3240211	-0.7307067	-1.8351489
C	-0.7615543	0.4450546	-2.7695128
H	-1.6797205	-0.6432242	-4.4263473
H	-2.6776361	0.6984877	-3.8330154
H	-3.2214982	-1.8486478	-3.0213286
H	-3.2829517	-0.5438633	-1.8161804
H	0.5866857	-1.2234267	-2.1966692
H	-1.0470264	1.3135913	-2.1670873
H	0.0513501	0.7485411	-3.4338928
C	-1.4144220	-2.8819178	-1.1865301
C	2.4921027	3.1241598	-1.7467529
H	3.0247514	3.9430139	-2.2667011
O	1.3157340	2.8717529	-2.0304069
C	3.2952170	2.3844839	-0.7138129
H	3.6475509	3.0799389	0.0596534
H	2.6939554	1.5975670	-0.2535705
H	4.1891946	1.9440060	-1.1748949
