31
-0.00401918 (energy)
C	-0.1741293	0.3824427	0.2508628
O	-1.0965073	-0.2839253	-0.2245476
O	1.1503777	0.0469925	0.0640254
H	1.2183659	-0.7933856	-0.4393774
N	0.5155222	1.7645759	2.2198892
C	-0.5606505	-0.0971821	3.3338668
H	-1.2789729	-0.2762966	2.5442274
H	-0.6278287	-0.7421859	4.2005474
C	1.3634204	1.0601532	4.4257993
H	1.2517131	2.0437569	4.9003951
H	1.1960184	0.2988844	5.1903208
H	2.4030711	0.9760305	4.0852145
C	0.9267457	3.7884068	1.1044088
C	1.5725871	2.7769713	2.0656541
C	-0.3369766	1.6789147	1.0365256
C	0.0878512	2.9009929	0.1573600
H	0.2772962	4.4692165	1.6664211
H	1.6654550	4.3883238	0.5643592
H	1.8292039	3.2268645	3.0274303
H	2.4895553	2.3484084	1.6306941
H	-1.3958030	1.7261545	1.3185041
H	0.7048888	2.5608304	-0.6806859
H	-0.7833781	3.4170982	-0.2536308
C	0.3846690	0.8719753	3.2871845
C	3.0931938	0.6191027	-2.7200687
H	4.1346017	0.9415995	-2.9099326
O	2.8678396	-0.3406712	-1.9743733
C	2.0311096	1.4194206	-3.4204590
H	2.1853758	1.3822396	-4.5071357
H	1.0388973	1.0335618	-3.1771392
H	2.0987679	2.4753435	-3.1267539
