31
-0.0039804 (energy)
C	-2.8935570	-1.4326819	-1.5868542
O	-3.5384287	-1.6666598	-2.6116651
O	-3.4970593	-1.0527932	-0.4065054
H	-4.4656560	-0.9581375	-0.5373977
N	-0.7437824	-0.4867901	-0.7227164
C	-1.3165992	1.1623877	-2.4012069
H	-1.8119051	0.4591619	-3.0582800
H	-1.2749255	2.1896682	-2.7397863
C	-0.0901697	1.8602504	-0.3414378
H	0.9791837	1.6511700	-0.2074054
H	-0.1832800	2.8470939	-0.7991681
H	-0.5436435	1.9051156	0.6567089
C	0.0689836	-2.3980409	0.3708213
C	-0.2388732	-0.9082258	0.5939375
C	-1.3836849	-1.5863825	-1.4409524
C	-1.0489847	-2.8570674	-0.5922938
H	1.0510204	-2.5051551	-0.1038097
H	0.0749847	-2.9718226	1.3024779
H	0.6510194	-0.3399015	0.8738805
H	-0.9948863	-0.7749661	1.3841103
H	-0.9911424	-1.6614518	-2.4622907
H	-1.9304045	-3.1669810	-0.0214877
H	-0.7492583	-3.6929796	-1.2292659
C	-0.7600918	0.8213324	-1.2141706
C	2.8466269	0.6578822	-2.2796438
H	2.7616157	-0.4304937	-2.4607347
O	3.0038411	1.0844463	-1.1301487
C	2.7571813	1.5254667	-3.5037249
H	1.7996948	1.3591999	-4.0152148
H	2.8506056	2.5793040	-3.2330304
H	3.5480506	1.2558598	-4.2162214
