31
-0.00392797 (energy)
C	-1.0595518	2.2300910	-0.4086815
O	-0.8359503	3.4405425	-0.4838611
O	-2.2367472	1.7282282	0.1052235
H	-2.8047005	2.4616915	0.4272991
N	0.0000000	0.0000000	0.0000000
C	1.0518398	1.3209786	1.7360545
H	1.0432630	2.2435130	1.1699660
H	1.4927669	1.3667409	2.7235600
C	0.5928657	-1.1022456	2.1247935
H	1.2092539	-1.8872656	1.6676225
H	1.0158232	-0.8731215	3.1049240
H	-0.4103704	-1.5195935	2.2773922
C	-0.5223362	-1.0201227	-2.0483671
C	-0.6367403	-1.2174142	-0.5278101
C	-0.1348003	1.1295037	-0.9167834
C	-0.7101186	0.5030473	-2.2295847
H	0.4743330	-1.3258709	-2.3864690
H	-1.2650593	-1.5986160	-2.6059988
H	-0.1136928	-2.1138273	-0.1870253
H	-1.6909800	-1.2953855	-0.2176711
H	0.8369170	1.6096842	-1.0842611
H	-1.7751112	0.7403611	-2.3203583
H	-0.2011553	0.8953095	-3.1135560
C	0.5550824	0.1484959	1.2738957
C	2.4403180	4.0685580	-0.3063621
H	2.4143192	4.0516365	0.7998117
O	2.6484017	3.0261924	-0.9373830
C	2.2099633	5.4130262	-0.9375673
H	2.9659296	6.1287927	-0.5879386
H	2.2524822	5.3366267	-2.0261131
H	1.2325900	5.8105088	-0.6333266
