31
-0.00362214 (energy)
C	0.7310027	-1.8948226	-1.1360920
O	1.5679464	-2.7965033	-1.2217655
O	-0.2965736	-1.7537789	-2.0449084
H	-0.2142500	-2.4268100	-2.7552070
N	0.3947796	0.4953778	-0.4751289
C	2.4795318	0.6571217	-1.6969654
H	2.8255254	-0.3312623	-1.4231318
H	3.1434756	1.2440202	-2.3185816
C	0.8680698	2.5638965	-1.7314766
H	0.7521458	3.2375432	-0.8724319
H	1.6204464	2.9945664	-2.3951779
H	-0.0888308	2.5484655	-2.2681808
C	-1.2097603	0.1743455	1.2076315
C	-0.9454837	0.9625473	-0.0858141
C	0.6552591	-0.8660166	-0.0133961
C	-0.5411546	-1.1929116	0.9398194
H	-0.7261796	0.6780456	2.0523684
H	-2.2762452	0.0773694	1.4322445
H	-0.9526184	2.0422934	0.0796151
H	-1.7000211	0.7270613	-0.8532166
H	1.6193345	-0.9201203	0.5066887
H	-1.2467105	-1.8620470	0.4366141
H	-0.1989984	-1.6884760	1.8517753
C	1.2917401	1.1758205	-1.3030404
C	3.1490512	-2.5386483	2.2711231
H	2.5747812	-3.1833641	1.5789249
O	3.3013014	-1.3384064	2.0176444
C	3.6992284	-3.2269969	3.4887269
H	4.3637094	-4.0487464	3.1899968
H	4.2487090	-2.5189154	4.1126407
H	2.8827502	-3.6751886	4.0703633
