31
-0.00351758 (energy)
C	1.0595519	-0.0152215	2.2671776
O	0.8359505	0.1209338	3.4722945
O	2.2367473	0.4037286	1.6837005
H	2.8047007	0.8482757	2.3500930
N	0.0000000	0.0000000	0.0000000
C	-1.0518398	1.9390655	0.9994473
H	-1.0432629	1.5417736	2.0062665
H	-1.4927668	2.9195151	0.8730358
C	-0.5928658	1.9011101	-1.4544665
H	-1.2092540	1.3145673	-2.1481733
H	-1.0158233	2.9061372	-1.3990212
H	0.4103703	1.9789188	-1.8919725
C	0.5223362	-2.1943902	-0.6489295
C	0.6367403	-0.7311933	-1.1072657
C	0.1348004	-0.7067191	1.2715418
C	0.7101187	-2.1083590	0.8825683
H	-0.4743331	-2.5804482	-0.8913219
H	1.2650593	-2.8440046	-1.1218025
H	0.1136927	-0.5512462	-2.0492369
H	1.6909799	-0.4393056	-1.2379075
H	-0.8369170	-0.7882700	1.7735095
H	1.7751113	-2.1565444	1.1320393
H	0.2011553	-2.9107852	1.4223711
C	-0.5550824	1.2803284	-0.0749697
C	2.8365738	4.3160757	1.6841187
H	3.0783255	4.6851647	0.6692728
O	2.7524405	3.1015225	1.8981144
C	2.6303849	5.3793570	2.7262306
H	1.8138406	6.0493771	2.4256058
H	2.3973938	4.9273691	3.6926668
H	3.5321293	5.9994508	2.8165305
