31
-0.00408612 (energy)
C	1.2312353	0.0700473	-2.1993918
O	1.1756368	-0.2910089	-3.3736855
O	1.8003936	1.2726427	-1.8755120
H	1.8468570	1.4583883	-0.9023353
N	0.0000000	0.0000000	0.0000000
C	2.0157118	0.7958736	1.0913630
H	2.6951011	0.1652683	0.5292028
H	2.4608665	1.3995824	1.8705513
C	-0.2195438	1.5733591	1.8837136
H	-0.8231377	0.9325431	2.5386291
H	0.3987464	2.2092587	2.5196713
H	-0.9082992	2.2148869	1.3221999
C	-1.5937755	-1.6231705	-0.6221226
C	-1.4619834	-0.1747890	-0.1187745
C	0.6968359	-0.7953346	-1.0305289
C	-0.3569998	-1.8226831	-1.5312844
H	-1.5615001	-2.3103294	0.2310760
H	-2.5330353	-1.7931395	-1.1568039
H	-1.9553526	-0.0181825	0.8416637
H	-1.8896284	0.5361980	-0.8423655
H	1.5608379	-1.3022084	-0.5770444
H	-0.5844695	-1.6175747	-2.5801607
H	0.0286313	-2.8439510	-1.4784713
C	0.6571895	0.7496727	0.9647149
C	2.4555050	-4.3548208	0.2679311
H	3.4725594	-4.3454685	-0.1680687
O	1.8817909	-3.2905898	0.5253736
C	1.8669502	-5.7172326	0.5056610
H	2.5113973	-6.2940834	1.1824018
H	0.8666178	-5.6318595	0.9353391
H	1.8168962	-6.2767896	-0.4378451
