31
-0.00654811 (energy)
C	2.8342612	2.0274430	0.2475702
O	3.7705643	2.7433629	0.5985884
O	1.6049164	2.5761030	-0.0029469
H	0.8983289	1.9185268	-0.2311152
N	2.2491991	-0.0273965	-1.0916490
C	0.0509815	-0.0041114	-0.0645759
H	0.4038919	0.2327132	0.9327331
H	-1.0109200	-0.1837597	-0.1638391
C	0.3021741	-0.6792127	-2.4540971
H	0.6342053	-1.6942670	-2.7057022
H	-0.7880621	-0.6891380	-2.4053116
H	0.6033657	-0.0193039	-3.2757074
C	4.4560434	-0.8007370	-1.3976262
C	3.2041737	-0.3504635	-2.1713273
C	2.9671598	0.4918481	0.0894710
C	4.4503895	0.0775552	-0.1230418
H	4.3621626	-1.8611427	-1.1370440
H	5.3724507	-0.6768977	-1.9823005
H	2.8103432	-1.1319731	-2.8228798
H	3.4183367	0.5344276	-2.7902526
H	2.5531503	0.0322694	0.9985652
H	5.0579323	0.9775179	-0.2451581
H	4.8403012	-0.4596250	0.7452296
C	0.8766286	-0.2254744	-1.1290299
C	0.9200482	1.5140294	3.8876976
H	1.7575712	2.1965960	3.6484467
O	0.7180446	0.5130171	3.1911482
C	0.0922419	1.9006025	5.0811698
H	-0.3400295	2.8992730	4.9333669
H	-0.7074529	1.1747491	5.2430400
H	0.7249746	1.9585789	5.9767709
