31
-0.00395399 (energy)
C	1.5317211	-0.2661472	-3.3063644
O	1.9983403	-1.1158844	-4.0630887
O	0.7048414	0.7101759	-3.7943587
H	0.4169496	1.3807851	-3.1226931
N	0.6782291	0.1077044	-0.9632985
C	0.7684070	2.4980408	-1.3704123
H	1.7217887	2.4805125	-1.8861766
H	0.3343478	3.4747536	-1.2049239
C	-1.0796434	1.5376704	0.0047492
H	-0.9064100	1.2873302	1.0588863
H	-1.4384072	2.5675354	-0.0372053
H	-1.8756874	0.8811779	-0.3648060
C	1.4341043	-1.9354290	-0.0599171
C	0.1604932	-1.1044775	-0.2965012
C	1.8543728	-0.2254132	-1.7914566
C	2.3278794	-1.6159870	-1.2826671
H	1.9165327	-1.6076222	0.8679742
H	1.2214635	-3.0048587	0.0300090
H	-0.3540829	-0.8523280	0.6319450
H	-0.5483902	-1.6423928	-0.9446507
H	2.6322819	0.5374000	-1.6429906
H	2.2024341	-2.3498830	-2.0824256
H	3.3889088	-1.6021643	-1.0209146
C	0.1887758	1.3966359	-0.8094381
C	5.1872564	0.4047899	-2.9572857
H	5.0914290	1.4912201	-2.7700173
O	5.0691744	-0.3976492	-2.0244619
C	5.4611311	0.0166387	-4.3832623
H	6.3918296	0.4852473	-4.7300378
H	5.5400027	-1.0686363	-4.4756430
H	4.6585131	0.3852794	-5.0357358
