31
-0.00390867 (energy)
C	-2.9901526	-1.6705065	1.2717878
O	-3.6543530	-1.7574017	2.3031489
O	-3.6143194	-1.5268349	0.0614782
H	-3.0028498	-1.5155981	-0.7193622
N	-0.8308906	-0.7771569	0.3243255
C	-1.2161602	-2.1104584	-1.6660153
H	-1.5585358	-2.9923661	-1.1366056
H	-1.1285595	-2.2037327	-2.7399741
C	-0.1828011	0.1526728	-1.8636946
H	0.8854030	0.2886226	-1.6531173
H	-0.2864169	-0.0625907	-2.9285978
H	-0.6849735	1.1042647	-1.6550443
C	0.1900228	-0.2643983	2.3874915
C	-0.2641273	0.3707702	1.0612764
C	-1.4422318	-1.7382355	1.2638557
C	-0.8589484	-1.3702736	2.6571091
H	1.1875902	-0.7002100	2.2605888
H	0.2416580	0.4651946	3.2011318
H	0.5608584	0.8231845	0.5089178
H	-1.0255263	1.1468412	1.2343428
H	-1.1609389	-2.7607694	0.9733952
H	-1.6683402	-1.0166080	3.3003503
H	-0.4169267	-2.2427402	3.1448670
C	-0.7643603	-0.9810454	-1.0462894
C	3.9368613	1.0346817	-0.9959019
H	4.0370158	1.7222269	-0.1346043
O	3.0799439	0.1438986	-0.9814034
C	4.8944910	1.2749383	-2.1291715
H	5.9298839	1.1933662	-1.7723039
H	4.7251107	0.5543646	-2.9320791
H	4.7723902	2.2950400	-2.5168534
