31
-0.00388715 (energy)
C	-2.9901526	2.0047397	-0.6237427
O	-3.6543530	2.4391408	-1.5631851
O	-3.6143194	1.4557822	0.4644378
H	-3.0028498	1.1781599	1.1943445
N	-0.8308906	0.8412145	-0.0389629
C	-1.2161602	1.4133713	2.2873616
H	-1.5585358	2.4231622	2.0915095
H	-1.1285595	1.1337049	3.3284545
C	-0.1828011	-0.7808866	1.6990829
H	0.8854030	-0.8366161	1.4547074
H	-0.2864169	-0.9428235	2.7733890
H	-0.6849735	-1.6037280	1.1775521
C	0.1900228	1.0650234	-2.1530785
C	-0.2641273	0.0145680	-1.1240845
C	-1.4422318	2.0656712	-0.5931242
C	-0.8589484	2.1964210	-2.0282046
H	1.1875902	1.4311491	-1.8847726
H	0.2416580	0.6577118	-3.1671858
H	0.5608584	-0.5994802	-0.7597720
H	-1.0255263	-0.6555080	-1.5521456
H	-1.1609389	2.9271954	0.0295466
H	-1.6683402	2.0840855	-2.7536143
H	-0.4169267	3.1830944	-2.1881458
C	-0.7643603	0.5640290	1.3187277
C	3.2392936	0.9984983	2.3302716
H	3.4799345	1.9245782	1.7743483
O	3.0287485	-0.0546809	1.7183104
C	3.1949353	1.1360500	3.8263298
H	2.4469107	1.8867072	4.1144617
H	2.9518033	0.1782837	4.2912462
H	4.1631452	1.4932743	4.2015280
