31
-0.003651 (energy)
C	2.3797798	-0.4802463	0.6813094
O	3.5265789	-0.5905628	0.2510760
O	2.1596538	0.0445543	1.9267828
H	1.2093302	0.0488064	2.2106842
N	0.0000000	0.0000000	0.0000000
C	-0.7247580	-0.7881325	2.1774193
H	-0.0531636	-1.6385250	2.2098299
H	-1.4148083	-0.6944297	3.0049529
C	-1.8932191	1.1339811	1.0962862
H	-2.6429980	0.9520749	0.3161408
H	-2.4121503	1.1587321	2.0560734
H	-1.4598372	2.1240929	0.9143570
C	0.3359149	-0.1650848	-2.3284646
C	-0.1369008	0.8048293	-1.2310816
C	1.1358771	-0.9353478	-0.1226170
C	1.4460284	-0.9993471	-1.6446159
H	-0.4987171	-0.8071433	-2.6323187
H	0.6993724	0.3589642	-3.2174268
H	-1.1684204	1.1299074	-1.3748583
H	0.5014375	1.7009521	-1.1929399
H	0.8393145	-1.9211855	0.2637031
H	2.4394702	-0.5811572	-1.8239033
H	1.4609818	-2.0316918	-2.0031264
C	-0.8359389	0.0505866	1.1059969
C	-0.2456998	-4.5469193	-0.0070949
H	-0.6229151	-4.0657280	0.9152642
O	0.6711719	-4.0224962	-0.6492310
C	-0.9207681	-5.8351690	-0.3862701
H	-1.9972026	-5.6699495	-0.5278264
H	-0.4874152	-6.2381265	-1.3040976
H	-0.8166675	-6.5687809	0.4241557
