31
-0.00359593 (energy)
C	-2.0975349	2.7135622	1.2593555
O	-2.5195678	3.8160665	0.9146945
O	-2.9335903	1.8165487	1.8688252
H	-2.4958567	0.9744856	2.1570127
N	-0.4951264	0.8719402	0.6277812
C	-0.8026084	-0.0793091	2.8386999
H	-0.7725825	0.8678239	3.3652874
H	-0.8763208	-0.9648684	3.4552327
C	-0.5357088	-1.5806242	0.8629751
H	0.4638174	-1.7819838	0.4576521
H	-0.7514243	-2.3464627	1.6100037
H	-1.2537750	-1.6893888	0.0421276
C	0.6651624	2.0692375	-1.0401661
C	-0.1765309	0.8009974	-0.8128847
C	-0.6242605	2.2792097	1.0556175
C	0.0531174	3.1093142	-0.0708178
H	1.7099541	1.8653667	-0.7793523
H	0.6367203	2.4055326	-2.0808770
H	0.3702389	-0.1130385	-1.0494463
H	-1.0922866	0.8189495	-1.4236512
H	-0.1067306	2.4169473	2.0159611
H	-0.7022164	3.7284838	-0.5607701
H	0.8103165	3.7848327	0.3351541
C	-0.6066060	-0.2062390	1.4936241
C	4.3340391	0.4330698	0.7174440
H	4.1239462	-0.1193642	1.6529976
O	3.4671489	0.5189263	-0.1595636
C	5.7059084	1.0392054	0.6191981
H	6.4715740	0.2570355	0.7087147
H	5.8253482	1.5626913	-0.3317348
H	5.8696580	1.7393779	1.4491125
