31
-0.00357577 (energy)
C	0.6044836	3.4408376	0.0094364
O	0.6302790	4.6551760	-0.1832686
O	1.3542627	2.6038982	-0.7731485
H	1.2328317	1.6387944	-0.5793383
N	0.4156353	1.6800389	1.8044560
C	0.0372610	0.0281932	0.0678441
H	-0.6264825	0.6484193	-0.5237817
H	0.1828217	-0.9841115	-0.2840262
C	1.3689582	-0.5741127	2.0908322
H	0.8585623	-0.8297214	3.0278729
H	1.5151887	-1.4986427	1.5296242
H	2.3542220	-0.1700966	2.3501889
C	-0.2262896	3.1281352	3.5516791
C	0.8598136	2.1169133	3.1438217
C	-0.2713886	2.7849788	1.1064351
C	-0.6308842	3.8074292	2.2209434
H	-1.0778326	2.5931347	3.9873692
H	0.1340531	3.8485584	4.2920344
H	0.9250241	1.2718021	3.8307822
H	1.8497015	2.5964189	3.0973152
H	-1.1762467	2.3988781	0.6152867
H	-0.0745612	4.7321041	2.0493790
H	-1.6936683	4.0613258	2.1982400
C	0.5567923	0.4066936	1.2722451
C	3.5028201	0.8417213	-2.1063955
H	4.4542570	1.0052923	-1.5654748
O	2.6226105	0.1293864	-1.6105909
C	3.3880860	1.5338004	-3.4356587
H	4.1967276	1.2065335	-4.1027733
H	2.4219138	1.3182253	-3.8967612
H	3.5022481	2.6184276	-3.3077362
