31
-0.00352882 (energy)
C	-3.2986564	-0.2794365	-1.5459077
O	-4.1425204	0.4233760	-2.0994116
O	-2.9789064	-1.5065224	-2.0627205
H	-2.3266302	-2.0240026	-1.5237558
N	-1.1387500	-0.2044897	-0.2469240
C	-1.4695179	-2.5375108	0.3320293
H	-2.5313776	-2.4465737	0.5306275
H	-1.0306354	-3.5073884	0.5230295
C	0.8301076	-1.6810489	-0.1227961
H	1.3749894	-1.1315345	0.6550361
H	1.0779688	-2.7386704	-0.0174638
H	1.2023672	-1.3359795	-1.0941814
C	-1.1371017	2.1182924	0.1611446
C	-0.3135322	0.9954690	-0.4942473
C	-2.5720581	0.1501298	-0.2465860
C	-2.6077416	1.6942445	-0.0699314
H	-0.9102263	2.1594249	1.2325981
H	-0.9164060	3.1000402	-0.2683287
H	0.6774497	0.8886537	-0.0504842
H	-0.1871184	1.1752818	-1.5729750
H	-3.0725390	-0.3567612	0.5910589
H	-3.0257198	2.1467636	-0.9724136
H	-3.2522861	1.9830987	0.7641037
C	-0.6649074	-1.4829817	0.0090315
C	3.4521081	0.4735386	-1.9253881
H	3.7778343	-0.5806204	-2.0104426
O	2.7949181	0.8419590	-0.9453984
C	3.8643221	1.3706024	-3.0587169
H	3.4660226	0.9873516	-4.0076759
H	3.5022391	2.3873967	-2.8925786
H	4.9581821	1.3793605	-3.1546696
