31
-0.00351124 (energy)
C	0.9519238	-2.0570564	-2.8655556
O	1.0808858	-1.9715297	-4.0855854
O	1.8990271	-2.7036067	-2.1171953
H	1.6878266	-2.7676424	-1.1502274
N	0.0996427	-0.8370663	-0.8300183
C	0.2922503	-2.9058939	0.4231523
H	-0.1065556	-3.5403452	-0.3602265
H	0.5183849	-3.3932693	1.3618162
C	0.8240021	-0.7295026	1.5228031
H	0.0137113	-0.0902456	1.8951797
H	1.1257989	-1.3908509	2.3368244
H	1.6713526	-0.0796644	1.2759291
C	-1.0600736	0.8605838	-1.9853892
C	0.0676423	0.6337685	-0.9629660
C	-0.2690058	-1.4756259	-2.1092630
C	-0.9587764	-0.3554962	-2.9376932
H	-2.0260723	0.8670386	-1.4677197
H	-0.9549847	1.8119524	-2.5153294
H	-0.1349632	1.1103918	-0.0026736
H	1.0273011	1.0195778	-1.3400241
H	-0.9603508	-2.3082828	-1.9148582
H	-0.3486049	-0.1352726	-3.8169803
H	-1.9398234	-0.6755889	-3.2976605
C	0.3756861	-1.5464533	0.3297886
C	5.0398174	-0.1849461	0.4932340
H	5.2224605	0.6100376	-0.2545797
O	3.8828483	-0.4871449	0.8064599
C	6.2713740	-0.8305466	1.0638007
H	6.9044271	-0.0745935	1.5473559
H	5.9985486	-1.5995864	1.7895561
H	6.8702983	-1.2779220	0.2594636
