31
-0.00338675 (energy)
C	-1.2891115	-1.4459223	1.6142092
O	-2.3338789	-1.5157980	2.2591874
O	-0.7240442	-2.5799046	1.0947302
H	0.1419833	-2.4352858	0.6334114
N	0.0000000	0.0000000	0.0000000
C	1.9530040	-1.3810043	0.4076574
H	1.8058536	-1.4568032	1.4790388
H	2.8503782	-1.8408503	0.0164763
C	1.5215719	-0.4776357	-1.8784883
H	1.7869484	0.5597465	-2.1178596
H	2.3814726	-1.1045541	-2.1206403
H	0.6909091	-0.7661319	-2.5327121
C	-1.3356617	1.9306821	0.2243077
C	-0.8338534	0.9095656	-0.8120548
C	-0.5440462	-0.1098517	1.3682373
C	-1.5046311	1.1028422	1.5212753
H	-0.5806324	2.7133223	0.3606228
H	-2.2683392	2.4119007	-0.0847617
H	-0.2487742	1.3729209	-1.6078967
H	-1.6743241	0.3704175	-1.2756225
H	0.2806839	-0.0567811	2.0935459
H	-2.5267195	0.7352434	1.6402707
H	-1.2660781	1.6874833	2.4133382
C	1.1640623	-0.6300671	-0.4153989
C	3.6727825	-3.3517677	-3.6699787
H	3.1739290	-3.9795138	-2.9073103
O	3.9467920	-2.1727089	-3.4194767
C	3.9708317	-4.0351999	-4.9750324
H	3.0421561	-4.4101336	-5.4256244
H	4.4609389	-3.3449119	-5.6648687
H	4.6156495	-4.9077503	-4.8056834
