31
-0.00323314 (energy)
C	-0.4047463	-0.0700474	-2.4878595
O	0.0491313	0.2910087	-3.5723189
O	-1.0503536	-1.2726428	-2.3781756
H	-1.4268610	-1.4583883	-1.4795801
N	0.0000000	0.0000000	0.0000000
C	-2.2674176	-0.7958736	0.3361317
H	-2.7135646	-0.1652683	-0.4244910
H	-2.9522244	-1.3995824	0.9160772
C	-0.4379644	-1.5733590	1.8452002
H	-0.0947660	-0.9325429	2.6670607
H	-1.2364775	-2.2092586	2.2313373
H	0.4013030	-2.2148868	1.5531182
C	1.7104375	1.6231705	-0.0395007
C	1.4144383	0.1747890	0.3884163
C	-0.3023498	0.7953346	-1.2067123
C	0.8592003	1.8226830	-1.3168356
H	1.3882974	2.3103295	0.7512048
H	2.7759248	1.7931395	-0.2206909
H	1.5495644	0.0181826	1.4596752
H	2.0637758	-0.5361980	-0.1452736
H	-1.2693470	1.3022083	-1.0760825
H	1.4316887	1.6175746	-2.2246577
H	0.4787624	2.8439510	-1.3991012
C	-0.9475081	-0.7496726	0.6817634
C	5.4239699	-0.7410048	-0.0519624
H	5.6066130	0.3486734	-0.1138153
O	4.2670008	-1.1738403	-0.0062671
C	6.6555265	-1.6023168	-0.0298669
H	7.2885795	-1.3340464	0.8264751
H	6.3827011	-2.6579420	0.0317647
H	7.2544508	-1.4280083	-0.9335923
