31
-0.00322553 (energy)
C	-3.2986564	-1.5709455	0.0067472
O	-4.1425204	-1.9939983	-0.7815030
O	-2.9789064	-2.2929881	1.1254472
H	-2.3266302	-1.8520709	1.7286560
N	-1.1387500	-0.2786820	0.1585051
C	-1.4695179	-0.1136491	2.5566166
H	-2.5313776	0.0977230	2.5015472
H	-1.0306354	-0.0939682	3.5449264
C	0.8301076	-0.4128417	1.6341866
H	1.3749894	0.4485957	1.2280898
H	1.0779688	-0.4927637	2.6940313
H	1.2023672	-1.3095488	1.1256803
C	-1.1371017	0.5265341	-2.0581283
C	-0.3135322	-0.3138772	-1.0661708
C	-2.5720581	-0.2167701	-0.1906682
C	-2.6077416	0.2253335	-1.6806486
H	-0.9102263	1.5888524	-1.9125799
H	-0.9164060	0.2740642	-3.0995384
H	0.6774497	0.1045958	-0.8839196
H	-0.1871184	-1.3449924	-1.4305709
H	-3.0725390	0.5201285	0.4539775
H	-3.0257198	-0.5848588	-2.2830073
H	-3.2522861	1.0968568	-1.8202858
C	-0.6649074	-0.2486228	1.4620202
C	3.8570372	0.3714857	-1.1606317
H	3.3514765	-0.0398880	-2.0549263
O	3.2700112	0.3956771	-0.0730530
C	5.2562635	0.8732904	-1.3829732
H	5.2570367	1.6646764	-2.1443893
H	5.6764137	1.2593539	-0.4518419
H	5.8912029	0.0637267	-1.7667335
