31
-0.00320849 (energy)
C	-1.2891115	2.1452344	-0.3071349
O	-2.3338789	2.6133463	-0.7563017
O	-0.7240442	2.6800006	0.8197188
H	0.1419833	2.2726861	1.0801503
N	0.0000000	0.0000000	0.0000000
C	1.9530040	1.3199478	0.5754088
H	1.8058536	2.0666839	-0.1965943
H	2.8503782	1.4207639	1.1706542
C	1.5215719	-0.8415789	1.7460238
H	1.7869484	-1.7901247	1.2625764
H	2.3814726	-0.5169839	2.3344983
H	0.6909091	-1.0411050	2.4326301
C	-1.3356617	-1.3348060	-1.4128482
C	-0.8338534	-1.2187464	0.0374125
C	-0.5440462	0.9636374	-0.9775192
C	-1.5046311	0.1330308	-1.8742578
H	-0.5806324	-1.8467215	-2.0203431
H	-2.2683392	-1.9021068	-1.4854088
H	-0.2487742	-2.0852545	0.3492236
H	-1.6743241	-1.1037107	0.7390837
H	0.2806839	1.3892023	-1.5672509
H	-2.5267195	0.4911166	-1.7291256
H	-1.2660781	0.2585768	-2.9334177
C	1.1640623	0.2156462	0.7232134
C	5.8191369	-0.8450176	2.4323340
H	6.3094757	-1.2525593	1.5278671
O	4.6740255	-0.3847593	2.3623738
C	6.6373655	-0.9014588	3.6918555
H	7.5754721	-0.3464364	3.5578665
H	6.0782625	-0.4804137	4.5301285
H	6.9131584	-1.9403000	3.9167123
