31
-0.00318278 (energy)
C	-2.9901526	1.1347857	-1.7664365
O	-3.6543530	0.8636942	-2.7653187
O	-3.6143194	1.4137287	-0.5799788
H	-3.0028498	1.6702327	0.1576144
N	-0.8308906	0.6193628	-0.5705695
C	-1.2161602	2.5529929	0.8437231
H	-1.5585358	3.2006463	0.0446106
H	-1.1285595	3.0079576	1.8210126
C	-0.1828011	0.4939555	1.8035173
H	0.8854030	0.2941828	1.6521369
H	-0.2864169	1.0604554	2.7305746
H	-0.6849735	-0.4716111	1.9329137
C	0.1900228	-0.5681169	-2.3339377
C	-0.2641273	-0.7113879	-0.8704628
C	-1.4422318	1.2011431	-1.7821473
C	-0.8589484	0.3788513	-2.9655270
H	1.1875902	-0.1151846	-2.3637445
H	0.2416580	-1.5319913	-2.8489741
H	0.5608584	-0.9476005	-0.1966806
H	-1.0255263	-1.4998482	-0.7676601
H	-1.1609389	2.2613540	-1.8589309
H	-1.6683402	-0.1734870	-3.4490152
H	-0.4169267	1.0318788	-3.7222705
C	-0.7643603	1.2797331	0.6476532
C	3.2623653	-2.3456996	-1.5180786
H	4.2794196	-2.0582800	-1.8460623
O	2.6886512	-1.6959322	-0.6367917
C	2.6738105	-3.5421774	-2.2117083
H	3.3182576	-4.4190713	-2.0640874
H	1.6734781	-3.7529696	-1.8276790
H	2.6237564	-3.3643489	-3.2941523
