31
-0.00315539 (energy)
C	-1.9521763	1.5823908	-0.2078904
O	-3.1182844	1.6665881	-0.5893627
O	-1.5343836	2.2878287	0.8888693
H	-0.5679234	2.1987224	1.0931921
N	0.0000000	0.0000000	0.0000000
C	1.4248075	1.9064985	0.4719840
H	0.9891625	2.5520333	-0.2821746
H	2.2694584	2.3098141	1.0138906
C	1.8169723	-0.2618468	1.6438014
H	2.3571252	-1.0705138	1.1356896
H	2.5506335	0.3394673	2.1834829
H	1.1443882	-0.7224090	2.3764354
C	-0.8894274	-1.7211887	-1.3447185
C	-0.3708408	-1.4279394	0.0742989
C	-0.8938685	0.7139461	-0.9334919
C	-1.5700131	-0.4008755	-1.7801157
H	-0.0435863	-1.9551160	-2.0012303
H	-1.5790864	-2.5702052	-1.3676050
H	0.4893335	-2.0434819	0.3418580
H	-1.1576986	-1.5954863	0.8257970
H	-0.2972411	1.3863272	-1.5667440
H	-2.6424544	-0.4065010	-1.5708513
H	-1.4510383	-0.2132455	-2.8502226
C	1.0641785	0.6025761	0.6549872
C	4.8348049	0.6124448	4.8262046
H	5.8698154	0.4843879	4.4561540
O	3.8814738	0.5210369	4.0446570
C	4.7046652	0.8941934	6.2968369
H	5.2535206	1.8094343	6.5559482
H	3.6540542	1.0055139	6.5732445
H	5.1550830	0.0791321	6.8787407
