31
-0.00271951 (energy)
C	3.0441961	-0.3731929	-1.6728567
O	3.9894579	-0.3692589	-2.4595481
O	2.0752469	-1.3362499	-1.7663121
H	1.3264868	-1.2318996	-1.1242821
N	2.3935477	0.1254929	0.7117062
C	0.0639221	-0.0184063	0.0485925
H	0.1863168	0.5237694	-0.8821717
H	-0.9474267	-0.3046090	0.3035888
C	0.7776083	-0.8696539	2.2834751
H	0.9323808	-0.1692734	3.1137749
H	-0.2618426	-1.2005083	2.3176918
H	1.4209784	-1.7392729	2.4597626
C	4.3774538	1.2489440	1.3148759
C	3.5027838	0.0374192	1.6832474
C	2.8729075	0.6948504	-0.5635089
C	4.2312857	1.3690566	-0.2214191
H	3.9878353	2.1448020	1.8116782
H	5.4190068	1.1182523	1.6232095
H	3.1316007	0.0844371	2.7081341
H	4.0607313	-0.9042087	1.5649334
H	2.1446441	1.4329090	-0.9295288
H	5.0320374	0.8456981	-0.7494778
H	4.2520964	2.4099958	-0.5538365
C	1.0700005	-0.2149745	0.9502157
C	-1.5720903	0.6264426	-3.7538470
H	-0.7499719	0.2745074	-4.4056490
O	-1.3963619	0.7271354	-2.5344239
C	-2.8592233	0.9542237	-4.4573569
H	-3.2312294	0.0716171	-4.9946314
H	-3.6111820	1.2918480	-3.7410157
H	-2.6896815	1.7353640	-5.2102771
