31
-0.00457866 (energy)
C	3.2986564	-1.5709453	-0.0067470
O	4.1425205	-1.9939980	0.7815032
O	2.9789066	-2.2929880	-1.1254469
H	2.3266303	-1.8520710	-1.7286558
N	1.1387500	-0.2786819	-0.1585050
C	1.4695179	-0.1136493	-2.5566165
H	2.5313777	0.0977229	-2.5015472
H	1.0306354	-0.0939685	-3.5449264
C	-0.8301076	-0.4128419	-1.6341866
H	-1.3749894	0.4485955	-1.2280899
H	-1.0779688	-0.4927640	-2.6940313
H	-1.2023671	-1.3095490	-1.1256802
C	1.1371016	0.5265344	2.0581283
C	0.3135322	-0.3138770	1.0661708
C	2.5720581	-0.2167699	0.1906682
C	2.6077416	0.2253339	1.6806486
H	0.9102262	1.5888526	1.9125798
H	0.9164060	0.2740645	3.0995384
H	-0.6774497	0.1045959	0.8839196
H	0.1871185	-1.3449923	1.4305711
H	3.0725390	0.5201286	-0.4539776
H	3.0257198	-0.5848584	2.2830074
H	3.2522860	1.0968572	1.8202857
C	0.6649075	-0.2486229	-1.4620202
C	5.1203800	2.7226900	-1.1519460
H	4.7307558	2.4865447	-2.1604158
O	4.6252003	2.1855256	-0.1548184
C	6.2529976	3.7099276	-1.1117293
H	5.9419448	4.6601274	-1.5660568
H	6.5730750	3.8827822	-0.0820456
H	7.0995341	3.3376959	-1.7038719
