31
-0.00172905 (energy)
C	-2.5701900	0.2661470	-2.5830869
O	-3.2674836	1.1158843	-3.1345821
O	-1.9600812	-0.7101760	-3.3244610
H	-1.4598282	-1.3807852	-2.7917665
N	-0.9667944	-0.1077044	-0.6732365
C	-1.1907749	-2.4980409	-1.0249556
H	-2.2630625	-2.4805126	-1.1835398
H	-0.7262924	-3.4747536	-1.0179043
C	1.0161573	-1.5376705	-0.3647969
H	1.2139072	-1.2873302	0.6850173
H	1.3389357	-2.5675354	-0.5269256
H	1.6377986	-0.8811780	-0.9843283
C	-1.3681101	1.9354290	0.4341887
C	-0.2522237	1.1044774	-0.2237281
C	-2.3552546	0.2254132	-1.0491858
C	-2.6261890	1.6159870	-0.4091314
H	-1.5040871	1.6076223	1.4711215
H	-1.1375366	3.0048587	0.4459641
H	0.5488670	0.8523280	0.4727305
H	0.1922288	1.6423928	-1.0752419
H	-3.0354717	-0.5374000	-0.6436129
H	-2.7818426	2.3498829	-1.2035634
H	-3.5337059	1.6021643	0.1997289
C	-0.4542354	-1.3966360	-0.6960578
C	4.5902379	0.4047903	0.2052185
H	4.4224549	1.4912205	0.0783281
O	3.6920904	-0.3976488	-0.0730526
C	5.9469929	0.0166390	0.7225505
H	6.1268862	0.4852476	1.6993264
H	6.0242742	-1.0686360	0.8162655
H	6.7289270	0.3852796	0.0454268
