31
-0.00124707 (energy)
C	0.0972273	-1.4460797	1.8632291
O	0.6802864	-2.5281632	1.9026723
O	-0.1138816	-0.7358652	3.0147948
H	-0.6352587	0.0992976	2.8947860
N	-0.2347803	0.6241447	0.4624746
C	-2.1072767	1.2205568	1.8857216
H	-2.5145323	0.2178378	1.9486055
H	-2.6811286	1.9989024	2.3701115
C	-0.6048484	3.0019941	0.9924908
H	-0.7316028	3.3620907	-0.0361728
H	-1.2181035	3.6293170	1.6417039
H	0.4461955	3.1476377	1.2669617
C	0.7782821	-0.2001911	-1.5011990
C	0.8786531	0.9281563	-0.4594240
C	-0.4463438	-0.8346757	0.5473930
C	0.2892094	-1.4237734	-0.6890114
H	0.0437972	0.0744156	-2.2669013
H	1.7326009	-0.3894349	-2.0016438
H	0.7626947	1.9187369	-0.9017860
H	1.8468684	0.8989371	0.0637127
H	-1.5240104	-1.0494143	0.5075080
H	1.1205164	-2.0448722	-0.3467854
H	-0.3729360	-2.0655771	-1.2756462
C	-1.0246667	1.5534596	1.1235612
C	2.4837364	-6.2582450	2.1232465
H	2.9574748	-6.9755862	1.4264132
O	1.8619077	-6.6703593	3.1088950
C	2.6594943	-4.8068125	1.7746339
H	2.2465741	-4.6054008	0.7771485
H	2.1623501	-4.1735255	2.5124496
H	3.7275664	-4.5553593	1.7321294
