31
-1.8872e-05 (energy)
C	-1.8180391	-1.0861613	-1.0426934
O	-1.7556360	-2.1304075	-1.6892801
O	-2.9887686	-0.7241827	-0.4315969
H	-2.9611193	0.1561122	0.0245276
N	-0.4962178	0.4427605	0.4650724
C	-2.2229980	2.1239265	0.1831280
H	-2.3556458	1.9604457	-0.8803265
H	-2.7996773	2.9296752	0.6166849
C	-1.0824435	1.8675988	2.3881456
H	-0.0914182	2.3104462	2.5482712
H	-1.8282842	2.6066551	2.6858213
H	-1.1702326	1.0027424	3.0556453
C	1.6135397	-0.5381119	0.0795183
C	0.6050208	-0.2162075	1.1965701
C	-0.6165836	-0.1189843	-0.8951048
C	0.7287645	-0.8549283	-1.1504389
H	2.2400673	0.3407596	-0.1108100
H	2.2720974	-1.3713835	0.3420880
H	1.0205264	0.4445041	1.9589319
H	0.2579606	-1.1352487	1.6934393
H	-0.7644395	0.6987523	-1.6151841
H	0.5360926	-1.9259384	-1.2492739
H	1.1915066	-0.5228868	-2.0832342
C	-1.2844233	1.4816704	0.9383378
C	-0.2408913	-6.0817045	-0.3152249
H	-0.0612203	-6.5659056	-1.2939233
O	-1.1565534	-6.4790224	0.4139620
C	0.6883330	-4.9508190	0.0264155
H	0.6228337	-4.1644429	-0.7373707
H	0.4397205	-4.5339930	1.0046919
H	1.7280391	-5.3041137	0.0291162
