31
-0.00509704 (energy)
C	-1.9092189	1.6084804	-0.3547465
O	-2.2586055	2.7766150	-0.1940942
O	-2.3332794	0.9082219	-1.4524194
H	-2.0440947	-0.0402764	-1.4737845
N	0.0000000	0.0000000	0.0000000
C	-1.5208815	-1.8271076	-0.4859827
H	-2.3515686	-1.4262064	0.0836610
H	-1.6726921	-2.8029532	-0.9269368
C	0.8505716	-1.9424832	-1.2551184
H	1.6417586	-2.2339714	-0.5530195
H	0.4870791	-2.8496870	-1.7408632
H	1.3057410	-1.3022600	-2.0194315
C	1.2848807	1.3944051	1.4023392
C	1.3331918	0.6326988	0.0659235
C	-1.0072731	0.8570659	0.6564800
C	-0.1882599	1.8538278	1.5239209
H	1.5463628	0.7132939	2.2201970
H	1.9846245	2.2350882	1.4266951
H	2.1252964	-0.1171224	0.0391149
H	1.4875639	1.3229014	-0.7777330
H	-1.6640687	0.2344049	1.2809651
H	-0.3332451	2.8654760	1.1372675
H	-0.5325715	1.8524053	2.5611944
C	-0.2876042	-1.2442997	-0.5418339
C	4.6793242	-1.9524779	0.7553093
H	4.5650588	-1.5898814	1.7945639
O	3.9305161	-1.5317857	-0.1336882
C	5.7773190	-2.9556151	0.5380505
H	5.6122862	-3.8387591	1.1696104
H	5.8178873	-3.2568270	-0.5108548
H	6.7436866	-2.5283541	0.8370405
