31
-0.00494858 (energy)
C	-0.3905317	0.0790354	-0.2519884
O	0.5139100	0.7993838	-0.6709179
O	-0.1621512	-0.7735410	0.7949266
H	-0.9326725	-1.3512053	1.0322745
N	-2.8796965	-0.0245571	0.1372393
C	-2.6696079	-2.4157339	0.4918073
H	-1.9752282	-2.5819335	-0.3239571
H	-3.0012571	-3.2980544	1.0221664
C	-4.2967106	-1.0940081	1.8461515
H	-5.2699776	-0.8194562	1.4204078
H	-4.4154429	-2.0520781	2.3551682
H	-4.0376087	-0.3368369	2.5950157
C	-3.4361042	1.9127116	-1.0871951
C	-3.5294078	1.2898267	0.3170293
C	-1.8089817	0.0670147	-0.8753374
C	-2.0922618	1.3865711	-1.6468902
H	-4.2743677	1.5604268	-1.6990665
H	-3.4742812	3.0057740	-1.0599970
H	-4.5597046	1.1751666	0.6572085
H	-2.9911856	1.9010598	1.0577570
H	-1.8649636	-0.8037292	-1.5444711
H	-1.2733287	2.0873436	-1.4673914
H	-2.1382979	1.2133913	-2.7250267
C	-3.2378079	-1.2060015	0.7701117
C	2.8976996	-2.2937346	0.9703495
H	2.3988462	-2.9358093	0.2197043
O	3.1717090	-2.7451724	2.0879966
C	3.1957488	-0.8898308	0.5239206
H	2.2670732	-0.3809777	0.2329274
H	3.6858560	-0.3303420	1.3235104
H	3.8405667	-0.9050902	-0.3647810
