31
-0.00494643 (energy)
C	0.7286256	1.9463272	-1.1194362
O	1.2900123	2.9076250	-0.5967796
O	0.9241068	1.6737450	-2.4470510
H	0.3931272	0.9113681	-2.7942904
N	-0.0624457	-0.4104037	-0.6973024
C	-1.3352377	-0.2943846	-2.7598547
H	-1.6964251	0.7157134	-2.6033220
H	-1.7088110	-0.8029825	-3.6382241
C	-0.2289197	-2.4312176	-2.0975283
H	-0.6998536	-3.0853763	-1.3530937
H	-0.5831471	-2.7403181	-3.0824513
H	0.8526130	-2.6028133	-2.0519062
C	0.2179056	-0.3853996	1.6441966
C	0.6685316	-1.1226205	0.3706271
C	-0.2322066	1.0124795	-0.3413365
C	0.0361122	1.0826344	1.1883217
H	-0.7341700	-0.8036190	1.9903488
H	0.9435098	-0.4800425	2.4575378
H	0.4082696	-2.1820696	0.3851759
H	1.7572796	-1.0402902	0.2298577
H	-1.2585233	1.3275121	-0.5790276
H	0.9343334	1.6790212	1.3657336
H	-0.7867419	1.5746481	1.7130336
C	-0.5785912	-0.9788058	-1.8527654
C	4.4315452	-2.3815841	-1.5577900
H	5.2000557	-1.5893231	-1.6371439
O	3.3528915	-2.1452315	-1.0022221
C	4.8053818	-3.7069895	-2.1599732
H	5.7160104	-4.0945778	-1.6839713
H	3.9924470	-4.4257151	-2.0368984
H	5.0327093	-3.5860502	-3.2274512
