31
-0.00475925 (energy)
C	0.0722553	-0.4417189	-0.1480654
O	0.0893566	0.3171704	-1.1156465
O	-0.1381864	0.0534717	1.1111311
H	-0.0853683	-0.6228866	1.8346523
N	-0.5880431	-2.7589987	0.5951648
C	0.6946182	-2.4139856	2.6257627
H	1.5358220	-1.9346260	2.1380665
H	0.7954501	-2.5865777	3.6886862
C	-1.4463332	-3.6939645	2.7073230
H	-1.4679528	-4.7475199	2.4016454
H	-1.2444766	-3.6634882	3.7794324
H	-2.4455948	-3.2784758	2.5338730
C	-0.9872754	-3.6404504	-1.5555318
C	-1.6685333	-3.3758592	-0.2011254
C	0.3038120	-1.9683568	-0.2763896
C	0.0013766	-2.4607699	-1.7195918
H	-0.4482345	-4.5937521	-1.5127807
H	-1.7063560	-3.6961262	-2.3782139
H	-2.0314935	-4.2899058	0.2712716
H	-2.5208059	-2.6882697	-0.3143452
H	1.3500899	-2.1648826	-0.0011644
H	-0.4354368	-1.6391677	-2.2924072
H	0.9163624	-2.7629953	-2.2352951
C	-0.3797909	-2.9254738	1.9565975
C	2.6130607	1.9398029	-1.9959056
H	2.0687404	2.0458517	-1.0382773
O	3.8482944	1.9828894	-2.0146986
C	1.7503620	1.7478737	-3.2116327
H	1.0637329	2.5973835	-3.3253006
H	2.3677791	1.6525197	-4.1073338
H	1.1279402	0.8507501	-3.0951265
