31
-0.00440608 (energy)
C	1.2891116	0.6749847	-2.0593101
O	2.3338791	1.1986143	-2.4423133
O	0.7240443	-0.3418885	-2.7816279
H	-0.1419832	-0.6690928	-2.4257250
N	0.0000000	0.0000000	0.0000000
C	-1.9530039	-0.3374606	-1.3998135
H	-1.8058535	0.5524834	-2.0011482
H	-2.8503782	-0.9061564	-1.6024613
C	-1.5215719	-1.8656364	0.5255997
H	-1.7869485	-1.5542467	1.5436846
H	-2.3814726	-2.3888053	0.1037484
H	-0.6909092	-2.5764589	0.6028667
C	1.3356617	1.1595973	1.5598658
C	0.8338534	-0.2484772	1.1937343
C	0.5440463	1.1300023	-0.7792532
C	1.5046311	1.8688842	0.1944516
H	0.5806323	1.6689699	2.1694945
H	2.2683391	1.1325448	2.1311481
H	0.2487741	-0.7060186	1.9929329
H	1.6743241	-0.9195127	0.9586025
H	-0.2806838	1.7846732	-1.0959471
H	2.5267195	1.7881377	-0.1833960
H	1.2660781	2.9337538	0.2547340
C	-1.1640623	-0.6747796	-0.3379547
C	4.5126245	-1.4252406	-0.6414836
H	5.0569448	-0.5005760	-0.3707556
O	3.2773907	-1.4512299	-0.6023152
C	5.3753231	-2.5891700	-1.0416056
H	6.0619522	-2.8486268	-0.2247399
H	4.7579060	-3.4547054	-1.2910477
H	5.9977450	-2.3186500	-1.9048687
