31
-0.00421613 (energy)
C	-0.9519236	3.4177403	-0.8728928
O	-1.0808856	4.1364430	-1.8624654
O	-1.8990269	3.4319899	0.1159790
H	-1.6878264	2.8594892	0.8978807
N	-0.0996427	1.1747555	-0.0977752
C	-0.2922502	1.9540470	2.1920259
H	0.1065558	2.9436110	1.9997403
H	-0.5183848	1.7240367	3.2243630
C	-0.8240021	-0.4200074	1.6354501
H	-0.0137114	-1.1490658	1.5098007
H	-1.1257989	-0.4366279	2.6841331
H	-1.6713527	-0.7591248	1.0286257
C	1.0600736	0.6169380	-2.0740690
C	-0.0676423	0.1334877	-1.1450533
C	0.2690059	2.4862031	-0.6672754
C	0.9587765	2.1606385	-2.0218952
H	2.0260723	0.2792417	-1.6816602
H	0.9549848	0.2287863	-3.0915547
H	0.1349631	-0.8488910	-0.7157941
H	-1.0273011	0.0803089	-1.6818900
H	0.9603510	2.9990943	0.0168689
H	0.3486051	2.5571322	-2.8370252
H	1.9398235	2.6372262	-2.0918945
C	-0.3756861	0.9726680	1.2466736
C	3.2171924	0.0402224	1.5576142
H	2.4373839	0.5066369	2.1892305
O	3.0102066	-0.1450443	0.3531038
C	4.4892112	-0.3284538	2.2683350
H	4.2754447	-1.0307936	3.0850784
H	5.1990113	-0.7801479	1.5721073
H	4.9378540	0.5630506	2.7263228
