31
-0.00414856 (energy)
C	-0.2078855	-0.2004231	0.3726579
O	0.0891224	0.9601262	0.6507409
O	0.0818719	-0.7068634	-0.8661456
H	-0.2385454	-1.6330600	-1.0185459
N	-0.4120648	-2.5229526	1.3330426
C	-1.6217632	-3.1833082	-0.6639908
H	-2.2218114	-2.2825280	-0.7255861
H	-1.8377756	-3.9503723	-1.3952314
C	-0.0458985	-4.7838261	0.4239725
H	-0.3622909	-5.3493976	1.3093593
H	-0.2889904	-5.3816734	-0.4561289
H	1.0433482	-4.6729745	0.4739021
C	-0.2060709	-1.9081626	3.6005168
C	0.4427831	-2.7791826	2.5101727
C	-0.9320647	-1.1414660	1.3680030
C	-0.7280114	-0.6683463	2.8347308
H	-1.0362376	-2.4568309	4.0598240
H	0.4997510	-1.6395906	4.3921398
H	0.4479250	-3.8392444	2.7682866
H	1.4819783	-2.4685163	2.3216884
H	-1.9977849	-1.1464151	1.0972916
H	-0.0067856	0.1523993	2.8475139
H	-1.6589853	-0.2864920	3.2613030
C	-0.7446878	-3.4429984	0.3494474
C	3.5094270	-1.4093745	1.2811138
H	3.4135996	-1.0283384	2.3156241
O	3.3913450	-2.6184432	1.0525932
C	3.7833016	-0.3685183	0.2319765
H	4.7140001	0.1661025	0.4644156
H	3.8621731	-0.8311518	-0.7540895
H	2.9806836	0.3808607	0.2249919
