31
-0.00409579 (energy)
C	-0.0720900	0.0691023	-0.4607468
O	0.2570580	1.1328820	0.0612234
O	-0.1778336	-1.0659069	0.2979676
H	-0.3989854	-1.8857328	-0.2145854
N	-1.5172245	-0.9382548	-2.2649056
C	-0.3163081	-3.0278706	-1.9840362
H	0.6645896	-2.5742299	-1.8985564
H	-0.3428186	-4.1090983	-1.9817460
C	-2.7641160	-3.0537217	-2.4700805
H	-3.1211401	-2.9128011	-3.4979717
H	-2.6278415	-4.1246431	-2.3099234
H	-3.5528667	-2.7029276	-1.7947619
C	-2.0615418	1.0836084	-3.3500909
C	-2.6930340	-0.1251072	-2.6368155
C	-0.3610850	-0.0661570	-1.9769578
C	-0.7254243	1.3098245	-2.6020195
H	-1.8786431	0.8324293	-4.4011066
H	-2.7071495	1.9664248	-3.3216586
H	-3.3700341	-0.6863328	-3.2826305
H	-3.2555874	0.1911156	-1.7449055
H	0.5395541	-0.4887408	-2.4452964
H	-0.8251390	2.0489639	-1.8034687
H	0.0632125	1.6624711	-3.2714830
C	-1.4584614	-2.3240154	-2.2366838
C	3.5144430	2.7797988	-0.3878343
H	3.0505037	3.4602913	0.3512688
O	3.9515354	3.2277822	-1.4537955
C	3.5603776	1.3305510	0.0079547
H	2.5443359	0.9575466	0.1938949
H	4.0323086	0.7348654	-0.7762752
H	4.1178177	1.2130051	0.9467075
