31
-0.00351355 (energy)
C	1.2638090	0.7879863	1.9994467
O	2.2100689	1.3286037	1.4425528
O	0.9569309	1.1129859	3.3122207
H	0.1559382	0.6570014	3.6418868
N	0.0000000	0.0000000	0.0000000
C	-1.3997671	1.8519128	0.6867409
H	-1.1523774	1.7725376	1.7372153
H	-2.0859285	2.6440767	0.4180067
C	-0.8710412	1.0573734	-0.2742657
C	-1.2208633	1.2632335	-1.7315909
H	-1.7398595	0.3934518	-2.1546718
H	-1.8767162	2.1293661	-1.8383033
H	-0.3248705	1.4406874	-2.3390152
C	0.9320401	-2.1485560	-0.1978434
C	0.6514413	-0.8667707	-0.9987477
C	0.4090816	-0.3242314	1.3612086
C	1.2715653	-1.6185398	1.2120448
H	0.0318567	-2.7732822	-0.1685277
H	1.7466951	-2.7418807	-0.6233996
H	-0.0069614	-1.0478534	-1.8512385
H	1.5853587	-0.4211326	-1.3733556
H	-0.4848685	-0.5017735	1.9822755
H	2.3326095	-1.3532342	1.2648314
H	1.0604788	-2.3411016	2.0050208
C	4.7922065	-1.3879514	3.6106794
H	5.1179327	-0.3337925	3.6957339
O	4.1350165	-1.7563718	2.6306897
C	5.2044205	-2.2850152	4.7440082
H	4.8061210	-1.9017643	5.6929672
H	4.8423375	-3.3018095	4.5778701
H	6.2982805	-2.2937733	4.8399609
