31
-0.00347149 (energy)
C	-2.3351920	-0.0566137	-0.8715480
O	-2.1662425	-0.7550969	-1.8621958
O	-3.6062337	0.0869819	-0.3358170
H	-3.6186346	0.6282196	0.4797189
N	0.0000000	0.0000000	0.0000000
C	-1.0162234	-1.5053493	1.6005484
H	-2.0045731	-1.0714775	1.5236150
H	-0.9152017	-2.3416524	2.2794821
C	0.0489158	-1.0874104	0.8758533
C	1.3889559	-1.7792903	0.9947869
H	2.1635683	-1.1066650	1.3852043
H	1.3098626	-2.6296864	1.6747036
H	1.7357182	-2.1537938	0.0238283
C	0.7449262	1.9513156	-1.0777690
C	1.1030854	0.4729060	-0.8559945
C	-1.2215122	0.7702387	-0.2000069
C	-0.7972879	1.9354737	-1.1505980
H	1.0845350	2.5483929	-0.2235810
H	1.1971257	2.3633095	-1.9847263
H	2.0673180	0.3514990	-0.3574551
H	1.1374791	-0.0739804	-1.8103836
H	-1.5812246	1.1494912	0.7711608
H	-1.1197472	1.7042220	-2.1711522
H	-1.2510900	2.8856735	-0.8562376
C	2.5600664	-2.9420267	-2.7704361
H	2.7689916	-3.6450394	-1.9417586
O	2.5504269	-1.7236443	-2.5619571
C	2.3018504	-3.5779302	-4.1076083
H	1.4438973	-4.2603053	-4.0418244
H	2.1060941	-2.8138439	-4.8628754
H	3.1660582	-4.1837682	-4.4107889
