31
-0.00338941 (energy)
C	3.2740725	1.8238772	1.1638013
O	2.8561636	2.9265940	0.8364277
O	3.9271799	1.6645095	2.3767428
H	4.1772550	0.7355041	2.5573040
N	1.8846681	0.3923220	-0.3315675
C	0.7994580	-0.0288578	1.7910414
H	1.6902671	0.1279602	2.3850666
H	-0.1011418	-0.2722162	2.3389974
C	0.7585441	0.1052108	0.4439226
C	-0.5373832	-0.0746716	-0.3155280
H	-0.4891804	-0.9213986	-1.0123813
H	-1.3553342	-0.2616032	0.3828480
H	-0.7888101	0.8193770	-0.8992394
C	3.3490190	0.2495068	-2.1644379
C	1.9006479	0.6037367	-1.7904069
C	3.2021457	0.5735896	0.2657241
C	4.1620052	0.7562732	-0.9535620
H	3.4508044	-0.8367683	-2.2698825
H	3.6687698	0.7157352	-3.1010197
H	1.1750598	-0.0425773	-2.2892314
H	1.6681848	1.6475199	-2.0504141
H	3.4641848	-0.3190351	0.8581335
H	4.3902777	1.8200681	-1.0769332
H	5.1038944	0.2190341	-0.8132663
C	2.5631579	-1.7773615	4.2473941
H	1.7565602	-1.0296876	4.3697326
O	3.0142222	-2.0240421	3.1232492
C	3.0349101	-2.4321806	5.5153610
H	2.1978689	-2.9415514	6.0112949
H	3.8279564	-3.1519231	5.3017609
H	3.4046437	-1.6730699	6.2174018
