31
-0.00338444 (energy)
C	1.5361395	1.5771553	1.5667416
O	0.8678357	1.5908896	2.5919181
O	2.5441848	2.5122923	1.3863583
H	3.0435653	2.3807502	0.5547896
N	1.0952359	-0.7586402	0.8146872
C	3.3694175	-0.9893274	1.6118216
H	3.6490456	0.0335796	1.3962571
H	4.1384586	-1.6102212	2.0518508
C	2.1295443	-1.4921187	1.4013628
C	1.7951335	-2.9181351	1.7797771
H	1.5244881	-3.5213155	0.9035356
H	2.6568504	-3.3885102	2.2571735
H	0.9540293	-2.9609626	2.4826050
C	-0.7623648	-0.3530376	-0.5669568
C	-0.2874649	-1.2254216	0.6063178
C	1.2812423	0.6218714	0.3846269
C	-0.0682387	1.0011620	-0.3055919
H	-0.4199948	-0.7853823	-1.5142335
H	-1.8514320	-0.2579237	-0.6079554
H	-0.3106749	-2.2905098	0.3653323
H	-0.9089000	-1.0607267	1.4995256
H	2.1272987	0.6773267	-0.3207138
H	-0.6703216	1.6014086	0.3844723
H	0.0911401	1.5850698	-1.2161490
C	4.0907677	4.8878358	2.0288624
H	4.1757789	4.1704946	2.8671807
O	3.9335533	4.4757216	0.8741080
C	4.1802133	6.3392683	2.4088903
H	5.1376998	6.5406799	2.9075884
H	4.0867889	6.9725554	1.5241326
H	3.3893441	6.5907214	3.1279943
