31
-0.00311751 (energy)
C	0.4124880	2.9171091	1.1859347
O	-0.6712688	3.4847379	1.2187126
O	1.0151539	2.5095940	2.3665700
H	1.8539485	2.0264881	2.2208887
N	0.4105481	2.1548042	-1.1878409
C	-0.0058770	0.0514094	-0.0640694
H	0.5256954	0.3203614	0.8393100
H	-0.4557191	-0.9324848	-0.0764471
C	-0.1619544	0.8820388	-1.1224040
C	-0.9669454	0.4575362	-2.3308483
H	-0.3498492	0.4095870	-3.2373625
H	-1.3948504	-0.5328065	-2.1640106
H	-1.7915830	1.1531395	-2.5292578
C	1.5008804	3.9943980	-2.1631378
C	0.2371453	3.1272354	-2.2821320
C	1.2258790	2.6865074	-0.1025346
C	1.7444347	4.0590170	-0.6398240
H	2.3396163	3.5004756	-2.6671567
H	1.3737835	4.9876553	-2.6036844
H	0.1711397	2.6233630	-3.2489730
H	-0.6724285	3.7315761	-2.1458453
H	2.0572028	1.9929194	0.1077717
H	1.1489888	4.8665176	-0.2012181
H	2.7928106	4.2275483	-0.3791147
C	3.8194082	1.0059233	-3.2163656
H	3.6639748	0.3216317	-4.0720340
O	4.0789052	2.1980104	-3.4153672
C	3.6913620	0.3791488	-1.8562788
H	4.4154625	-0.4393965	-1.7480707
H	3.8592706	1.1234581	-1.0750061
H	2.6932840	-0.0628308	-1.7366648
