31
-0.003069 (energy)
C	-0.9076417	-0.0758914	-2.5440617
O	0.0709895	-0.5376762	-3.1157620
O	-1.9165891	0.5278055	-3.2794185
H	-2.6702666	0.8195380	-2.7271023
N	-0.7505456	-1.3140254	-0.3857596
C	-2.6149412	-2.4721999	-1.4071326
H	-2.9514330	-1.6198771	-1.9827346
H	-3.1871046	-3.3826907	-1.5262739
C	-1.5218227	-2.4576569	-0.6075965
C	-1.0781540	-3.7051005	0.1242457
H	-1.1235228	-3.5783932	1.2136316
H	-1.7246239	-4.5432324	-0.1428271
H	-0.0473933	-3.9775188	-0.1337818
C	0.5224779	0.2396155	0.8347915
C	0.4775015	-1.2417590	0.4265469
C	-1.0724238	-0.0376188	-1.0122924
C	-0.0403952	0.9665210	-0.4056767
H	-0.1232325	0.4053282	1.7048891
H	1.5318440	0.5766685	1.0885047
H	0.4168898	-1.9070005	1.2907261
H	1.3669546	-1.5184931	-0.1594716
H	-2.1086974	0.2449020	-0.7618705
H	0.7613935	1.1418878	-1.1305006
H	-0.5015911	1.9287787	-0.1673020
C	4.0968026	2.1288149	-0.8810155
H	4.8653131	1.8014068	-0.1552205
O	3.0181488	1.5295029	-0.9541120
C	4.4706393	3.3130236	-1.7277587
H	5.3812678	3.0945879	-2.3014210
H	3.6577045	3.5658006	-2.4117306
H	4.6979670	4.1770169	-1.0892831
