31
-0.00449466 (energy)
C	0.1832159	-0.4272481	-0.1052302
O	1.0903504	0.3067352	0.2637969
O	-1.1173184	0.0518168	-0.1529985
H	-1.7535179	-0.6033090	-0.5054916
N	1.5115197	-2.1471657	-1.3272838
C	0.5316065	-0.9587223	-3.1948796
H	-0.3607211	-0.6615139	-2.6596999
H	0.6027988	-0.6273659	-4.2223491
C	1.5444172	-1.6648318	-2.6381021
C	2.7884276	-1.9966147	-3.4323999
H	2.9161927	-3.0793985	-3.5594043
H	2.7267836	-1.5477026	-4.4255737
H	3.6921044	-1.6126847	-2.9432954
C	1.8421924	-3.6708939	0.4314208
C	2.5973713	-2.8734242	-0.6441739
C	0.3676708	-1.9171635	-0.4531722
C	0.7036365	-2.7146899	0.8477663
H	1.4338757	-4.5897309	-0.0050290
H	2.4794087	-3.9472519	1.2766289
H	3.1341547	-3.5226794	-1.3394127
H	3.3224684	-2.1820306	-0.1888332
H	-0.5479348	-2.2969101	-0.9367537
H	1.0621556	-2.0200006	1.6144860
H	-0.1726181	-3.2361302	1.2424082
C	1.0998994	4.3360945	2.0360341
H	0.9458016	5.0033242	1.1667578
O	0.6698942	4.6590293	3.1490574
C	1.8449700	3.0626835	1.7490285
H	2.8381447	3.2904537	1.3394292
H	1.9506811	2.4682285	2.6589874
H	1.3139148	2.4782884	0.9859583
