31
-0.00293562 (energy)
C	2.3490811	0.2318360	-0.8024916
O	2.8564344	-0.7212186	-0.2262234
O	2.9783942	0.7865684	-1.9067613
H	2.4636774	1.5115643	-2.3161981
N	0.0000000	0.0000000	0.0000000
C	-0.2503405	-0.7718050	-2.2808307
H	0.5562312	-0.1669707	-2.6740433
H	-0.7641377	-1.4019997	-2.9945716
C	-0.6004593	-0.8031097	-0.9728497
C	-1.7034385	-1.7167061	-0.4856855
H	-2.5477816	-1.1526504	-0.0687912
H	-2.0798916	-2.3202888	-1.3137478
H	-1.3449537	-2.3992523	0.2946200
C	0.1221300	1.3874895	1.8931695
C	-0.2947897	-0.0223956	1.4442166
C	1.0642946	0.9399303	-0.3304099
C	1.3503481	1.6925716	1.0086445
H	-0.6870869	2.0976963	1.6876293
H	0.3587060	1.4375977	2.9600884
H	-1.3538897	-0.2178453	1.6262397
H	0.2923327	-0.7939144	1.9649585
H	0.7155955	1.6298409	-1.1170640
H	2.2533659	1.2787698	1.4694212
H	1.5087693	2.7623573	0.8476308
C	3.5107774	4.6367941	-1.0774560
H	3.7176147	4.2420884	-2.0903769
O	3.2635612	3.8600120	-0.1482058
C	3.5567032	6.1332963	-0.9453573
H	2.8275250	6.5948443	-1.6245623
H	3.3418884	6.4331074	0.0825262
H	4.5458253	6.5081863	-1.2401596
