31
-0.00885951 (energy)
C	1.8962758	0.0566135	-1.6176699
O	1.3986938	0.7550965	-2.4907902
O	3.2738951	-0.0869821	-1.5489691
H	3.5644779	-0.6282197	-0.7868573
N	0.0000000	0.0000000	0.0000000
C	1.5023573	1.5053495	1.1564545
H	2.4047895	1.0714777	0.7461253
H	1.6396369	2.3416527	1.8289949
C	0.2535936	1.0874105	0.8397629
C	-0.9649546	1.7792905	1.4098444
H	-1.5593215	1.1066653	2.0416499
H	-0.6580860	2.6296867	2.0217056
H	-1.6228919	2.1537938	0.6160415
C	-1.0686203	-1.9513158	-0.7579916
C	-1.3293285	-0.4729061	-0.4270943
C	1.0794397	-0.7702388	-0.6057266
C	0.3556780	-1.9354739	-1.3538967
H	-1.0955987	-2.5483929	0.1608357
H	-1.8037464	-2.3633098	-1.4555913
H	-2.0649003	-0.3514990	0.3711664
H	-1.6880683	0.0739801	-1.3121635
H	1.7496176	-1.1494912	0.1838438
H	0.3096406	-1.7042224	-2.4231916
H	0.8827896	-2.8856737	-1.2324976
C	5.2725137	1.5498039	1.0530525
H	4.7669531	2.5019466	0.8032210
O	4.6854876	0.4745473	0.8880204
C	6.6717400	1.6816301	1.5858429
H	6.6725131	2.2940559	2.4974245
H	7.0918901	0.6976056	1.8043521
H	7.3066795	2.2001394	0.8552176
