31
-0.00293505 (energy)
C	-2.3351920	-0.5168517	0.7040351
O	-2.1662425	-0.6185587	1.9118916
O	-3.6062337	-0.2824910	0.2013398
H	-3.6186346	-0.1728867	-0.7712978
N	0.0000000	0.0000000	0.0000000
C	-1.0162234	2.1819772	-0.2584712
H	-2.0045731	1.8001602	-0.4784242
H	-0.9152017	3.2590327	-0.2409994
C	0.0489158	1.3959923	0.0280314
C	1.3889559	2.0024521	0.3816549
H	2.1635683	1.7381468	-0.3497774
H	1.3098626	3.0909354	0.4074326
H	1.7357182	1.6652183	1.3661784
C	0.7449262	-2.1875710	-0.4286627
C	1.1030854	-0.9124897	0.3517517
C	-1.2215122	-0.7185990	-0.3418857
C	-0.7972879	-2.2222490	-0.3626894
H	1.0845350	-2.0958972	-1.4668024
H	1.1971257	-3.0861576	0.0012824
H	2.0673180	-0.4990316	0.0478873
H	1.1374791	-1.1070199	1.4343879
H	-1.5812246	-0.3848687	-1.3296222
H	-1.1197472	-2.7010996	0.5677462
H	-1.2510900	-2.7609330	-1.1989592
C	4.8844486	-1.7669627	-0.1749725
H	4.3365782	-2.4104787	-0.8893310
O	4.3286800	-0.7819857	0.3239801
C	6.2987892	-2.1837261	0.1166216
H	6.8853349	-2.2043245	-0.8115953
H	6.7610978	-1.4959208	0.8277976
H	6.3155440	-3.2030317	0.5247254
