31
-0.00293402 (energy)
C	-2.4924497	0.0101650	-0.0592794
O	-2.6725107	0.8625427	-0.9188350
O	-3.5036073	-0.8887919	0.2450418
H	-3.2363305	-1.5536943	0.9118692
N	0.0000000	0.0000000	0.0000000
C	-0.4075176	-2.0848638	-1.1609540
H	-1.3625753	-2.2712273	-0.6875281
H	-0.0803793	-2.8243563	-1.8797658
C	0.3455253	-0.9828799	-0.9308771
C	1.6454288	-0.7617288	-1.6724253
H	2.5068569	-0.7453192	-0.9923173
H	1.8036506	-1.5652454	-2.3942586
H	1.6391912	0.1885783	-2.2202710
C	0.3313828	1.5871368	1.7015627
C	0.7437937	1.2458166	0.2605302
C	-1.2162524	-0.0925946	0.7984478
C	-1.1427333	1.1323281	1.7656715
H	0.9426603	1.0147270	2.4087821
H	0.4461136	2.6503039	1.9324472
H	1.8203865	1.0881547	0.1650504
H	0.4496928	2.0456428	-0.4358237
H	-1.2221124	-1.0466326	1.3517736
H	-1.7947962	1.9279973	1.3905544
H	-1.4684905	0.8720711	2.7764200
C	5.2529583	-1.3118284	-1.3292835
H	4.7050878	-1.3456096	-2.2901579
O	4.6971895	-0.8780128	-0.3139327
C	6.6672989	-1.8185206	-1.3737997
H	7.2538446	-1.2376535	-2.0980956
H	7.1296075	-1.7487661	-0.3868946
H	6.6840539	-2.8616780	-1.7163710
