31
-0.00289207 (energy)
C	1.9223787	-0.0566138	-1.5865616
O	2.6958301	-0.7550968	-0.9449232
O	2.0939428	0.0869817	-2.9551816
H	1.3938684	0.6282194	-3.3736891
N	0.0000000	0.0000000	0.0000000
C	-0.8780039	-1.5053495	-1.6803493
H	-0.3172027	-1.0714778	-2.4978186
H	-1.5164885	-2.3416526	-1.9323288
C	-0.7829690	-1.0874104	-0.3955642
C	-1.5559885	-1.7792903	0.7054779
H	-2.2814061	-1.1066651	1.1811031
H	-2.1052670	-2.6296865	0.2970227
H	-0.8884949	-2.1537937	1.4912621
C	0.5609122	1.9513157	1.1840093
C	0.1897703	0.4729061	1.3832972
C	0.7839671	0.7702387	-0.9578573
C	1.3950910	1.9354737	-0.1151728
H	-0.3486407	2.5483929	1.0510252
H	1.1202605	2.3633098	2.0291042
H	-0.7240937	0.3514992	1.9690774
H	0.9990987	-0.0739802	1.8902775
H	0.1227673	1.1494911	-1.7549612
H	2.4401465	1.7042221	0.1158463
H	1.3670684	2.8856735	-0.6553572
C	3.0851095	5.8507755	0.0099162
H	3.8917073	5.8414232	0.7674750
O	2.6340452	4.7865445	-0.4282224
C	2.6133574	7.2131873	-0.4147746
H	3.4503985	7.7900381	-0.8302890
H	1.8203109	7.1278142	-1.1606737
H	2.2436238	7.7727443	0.4547116
