31
-0.00272049 (energy)
C	3.2740725	2.1119274	0.4698128
O	2.8561636	3.0361739	-0.2149691
O	3.9271799	2.3770212	1.6641119
H	4.1772550	1.5657973	2.1515224
N	1.8846681	0.2552593	-0.4457535
C	0.7994580	0.5854548	1.6928984
H	1.6902671	0.9359841	2.1974646
H	-0.1011418	0.5441846	2.2910420
C	0.7585441	0.2506963	0.3811666
C	-0.5373832	-0.1780853	-0.2709601
H	-0.4891804	-1.2120863	-0.6361904
H	-1.3553342	-0.1148849	0.4492330
H	-0.7888101	0.4624045	-1.1252521
C	3.3490190	-0.5058217	-2.1192427
C	1.9006479	-0.0450283	-1.8889223
C	3.2021457	0.6298809	0.0535198
C	4.1620052	0.3845270	-1.1547159
H	3.4508044	-1.5626506	-1.8468002
H	3.6687698	-0.3880401	-3.1588012
H	1.1750598	-0.8229728	-2.1366116
H	1.6681848	0.8468793	-2.4902440
H	3.4641848	-0.0062960	0.9154982
H	4.3902777	1.3419717	-1.6344861
H	5.1038944	-0.0723287	-0.8391344
C	4.0861930	-3.4354384	1.0167950
H	4.0392273	-3.0448444	2.0511129
O	3.5770414	-2.7963037	0.0892803
C	4.7929930	-4.7519750	0.8547969
H	4.3029396	-5.5213645	1.4662986
H	4.7919550	-5.0600511	-0.1928981
H	5.8272359	-4.6721164	1.2150432
