31
-0.00207096 (energy)
C	-2.6979684	0.7879804	1.4785690
O	-3.0546833	-0.1541071	2.1735735
O	-2.2054927	1.9391261	2.0748121
H	-1.9075223	2.6085716	1.4257764
N	-2.3642527	-0.3978087	-0.6890243
C	-0.0597952	-0.0413835	-0.0386560
H	-0.2584569	0.8639161	0.5198821
H	0.9704285	-0.3711697	-0.0596117
C	-1.0192614	-0.7741592	-0.6525306
C	-0.6744301	-2.0612991	-1.3687098
H	-0.8901076	-2.0021029	-2.4433510
H	0.3888860	-2.2790543	-1.2518432
H	-1.2397915	-2.9101085	-0.9647957
C	-4.5044958	-0.0863286	-1.6090641
C	-3.4643852	-1.1726937	-1.2910423
C	-2.8359055	0.8277319	-0.0558130
C	-4.3489570	0.9072970	-0.4375287
H	-4.2573044	0.3979251	-2.5608346
H	-5.5210705	-0.4840186	-1.6812689
H	-3.1295843	-1.6994372	-2.1874101
H	-3.8692505	-1.9148044	-0.5864275
H	-2.2716251	1.6882889	-0.4525769
H	-4.9537042	0.5774053	0.4136120
H	-4.6498712	1.9262795	-0.6955784
C	3.8471681	0.0474898	1.1568311
H	3.3416074	0.7399216	1.8564951
O	3.2601421	-0.3472165	0.1431154
C	5.2463944	-0.3480070	1.5373912
H	5.2471676	-0.8312469	2.5235582
H	5.6665446	-1.0292537	0.7944555
H	5.8813338	0.5439878	1.6211207
