31
-0.00189272 (energy)
C	3.7925421	1.0041798	-0.0935944
O	4.1339084	-0.0688895	-0.5729657
O	4.3273552	2.1838469	-0.5891092
H	3.9509968	2.9820241	-0.1654839
N	1.6550789	0.3144800	0.9887586
C	0.7940668	1.5461795	-0.9091656
H	1.6420398	2.2146798	-0.9802134
H	0.0112783	1.6909841	-1.6418543
C	0.6972294	0.5453381	-0.0017977
C	-0.4941471	-0.3869480	0.0020979
H	-1.0710006	-0.3099268	0.9327872
H	-1.1611138	-0.1422474	-0.8267527
H	-0.1859518	-1.4337501	-0.1096084
C	2.4818486	-0.2182430	3.1234229
C	1.6383163	-0.7853800	1.9701815
C	2.8457408	1.1463458	1.1140029
C	3.5605833	0.6144659	2.3975396
H	1.8604148	0.4245389	3.7575553
H	2.9173847	-1.0007143	3.7517875
H	0.6176742	-1.0194532	2.2808666
H	2.0919554	-1.7003484	1.5600955
H	2.5475471	2.2024708	1.2238785
H	4.3950854	-0.0311077	2.1045732
H	3.9576876	1.4294604	3.0087320
C	7.1631827	2.0129112	1.7691523
H	7.0489173	2.7316337	0.9355072
O	6.4143746	1.0326706	1.8493209
C	8.2611774	2.3263281	2.7465241
H	8.0961445	3.3148469	3.1955693
H	8.3017456	1.5685553	3.5318338
H	9.2275450	2.3716305	2.2270103
