31
-0.0078203 (energy)
C	0.2743942	-0.0114362	-0.3895631
O	-0.8894540	-0.1844178	-0.7262238
O	0.5860469	0.1766838	0.9485915
H	1.5481249	0.2589119	1.1093252
N	1.4293453	-0.9504949	-2.3896080
C	1.8366619	-2.7221586	-0.7909077
H	1.8281797	-2.0721902	0.0742326
H	1.9974558	-3.7738648	-0.5943917
C	1.6187470	-2.2942511	-2.0573143
C	1.5895201	-3.2702887	-3.2127566
H	2.3927199	-3.0739653	-3.9346998
H	1.7137149	-4.2896300	-2.8423038
H	0.6379457	-3.2216316	-3.7562601
C	1.6452637	1.0234235	-3.6470496
C	1.1353182	-0.4241280	-3.7348404
C	1.4502666	0.1003995	-1.3793873
C	1.3171058	1.4274265	-2.1934082
H	2.7275381	1.0474988	-3.8190230
H	1.1679383	1.6836965	-4.3771146
H	1.6549151	-0.9994564	-4.5042830
H	0.0570561	-0.4518653	-3.9532613
H	2.4022763	0.0588965	-0.8240971
H	0.2848299	1.7872325	-2.1306839
H	1.9754283	2.2096459	-1.8058410
C	2.7863970	-1.6021260	3.3440375
H	3.7438455	-2.0906569	3.0809540
O	2.5902619	-0.4197718	3.0414130
C	1.7959215	-2.4699420	4.0685593
H	2.2337706	-2.8423775	5.0043086
H	0.8846261	-1.9093375	4.2872832
H	1.5504074	-3.3510058	3.4608895
