31
-0.00187078 (energy)
C	1.2997304	-2.8853375	-0.2676593
O	0.4705765	-3.7220532	0.0643289
O	1.6586709	-2.7593587	-1.6012505
H	2.2928105	-2.0306393	-1.7594459
N	1.1821263	-1.3753811	1.7127759
C	0.0155985	-0.0249115	0.0769315
H	0.5520499	-0.4235266	-0.7741412
H	-0.7377789	0.7201441	-0.1418688
C	0.2115655	-0.4373848	1.3520159
C	-0.6160904	0.1255182	2.4863335
H	0.0014789	0.6691597	3.2129262
H	-1.3616695	0.8198788	2.0942987
H	-1.1449165	-0.6669538	3.0300138
C	2.8842470	-2.3440449	3.0122409
C	1.4117104	-1.9063189	3.0687111
C	2.0629195	-1.9872109	0.7252385
C	3.0444070	-2.8641222	1.5673022
H	3.5359703	-1.4799265	3.1855283
H	3.1255326	-3.1092887	3.7558659
H	1.2373910	-1.1388531	3.8260978
H	0.7524529	-2.7603924	3.2856538
H	2.5980008	-1.1987253	0.1699272
H	2.7308072	-3.9117512	1.5114736
H	4.0708396	-2.7948269	1.1970343
C	1.2967955	-3.7121431	-4.7165806
H	0.8170457	-3.9731292	-3.7541310
O	1.2345496	-4.4938495	-5.6721290
C	1.9967790	-2.3824869	-4.7499802
H	2.7804918	-2.3489581	-3.9813991
H	2.4390463	-2.2078782	-5.7330815
H	1.2883833	-1.5768634	-4.5155457
