31
-0.00163973 (energy)
C	2.5158092	-1.9102086	-0.3285127
O	2.4531142	-2.7915705	0.5182907
O	2.2920369	-2.2163190	-1.6624530
H	2.3213165	-1.4304421	-2.2453175
N	2.2216708	0.0897056	1.1308532
C	0.0505420	0.0183769	0.0623711
H	0.4098552	-0.4377136	-0.8507960
H	-1.0116501	0.2189035	0.1081544
C	0.8400773	0.2974470	1.1268575
C	0.2572673	0.8843760	2.3935056
H	0.6612461	1.8827381	2.6055177
H	-0.8264070	0.9748137	2.2976558
H	0.4680442	0.2512361	3.2641170
C	4.4824373	0.5510420	1.5783315
C	3.1288889	0.3205056	2.2696466
C	2.9195967	-0.4536339	-0.0280446
C	4.4302443	-0.4066094	0.3683072
H	4.5563507	1.5920822	1.2433024
H	5.3322579	0.3415531	2.2346199
H	2.8115464	1.1857020	2.8559525
H	3.1690298	-0.5527079	2.9382369
H	2.7120925	0.1740110	-0.9108788
H	4.7552540	-1.4074838	0.6709744
H	5.0589609	-0.0809008	-0.4648156
C	3.6707853	-0.7334436	6.2636822
H	3.6343654	0.3576649	6.4446208
O	3.5201944	-1.1773176	5.1198683
C	3.9089885	-1.5826023	7.4807553
H	3.1199222	-1.4068641	8.2240838
H	3.9298291	-2.6405215	7.2106638
H	4.8591983	-1.3040347	7.9554286
