31
-0.000918782 (energy)
C	3.3675805	1.8157139	0.8735541
O	4.0498668	0.8586662	0.5324519
O	3.7406212	3.0982779	0.5006670
H	3.1004927	3.7812457	0.7869911
N	1.2270708	0.6411452	1.3780630
C	0.6444606	1.7092234	-0.7148575
H	1.3129420	2.5495998	-0.5810713
H	0.0690116	1.7000842	-1.6310093
C	0.5357618	0.6850863	0.1647477
C	-0.3798270	-0.4860049	-0.1159536
H	-1.1826678	-0.5653594	0.6283745
H	-0.8432062	-0.3694187	-1.0974848
H	0.1691848	-1.4356505	-0.1118732
C	1.5618098	0.2400685	3.6696172
C	1.1959840	-0.4641382	2.3530226
C	2.1302300	1.7103264	1.7861286
C	2.5826041	1.3107397	3.2273262
H	0.6703955	0.7113830	4.0994027
H	1.9784702	-0.4458142	4.4130916
H	0.2069540	-0.9259892	2.3922526
H	1.9308614	-1.2443991	2.1034746
H	1.5890467	2.6713157	1.7826260
H	3.5854645	0.8734143	3.1825403
H	2.6164526	2.1745788	3.8967293
C	4.3639360	-3.4033492	0.1479440
H	3.9072041	-3.9454535	0.9977098
O	5.3395522	-3.8827717	-0.4405619
C	3.7172733	-2.0933398	-0.2052991
H	3.7417310	-1.4152267	0.6581888
H	4.2298583	-1.6296872	-1.0507928
H	2.6595671	-2.2497235	-0.4555289
