31
-0.00416215 (energy)
C	-0.4480173	0.0314574	-0.1596035
O	0.2021621	0.9521653	-0.6364362
O	0.1628762	-0.8784770	0.6901040
H	-0.4589541	-1.5440446	1.0486257
N	-2.7472824	0.9476275	-0.4594959
C	-2.4831476	1.2320443	1.9300400
H	-1.8111923	0.3925171	2.0511550
H	-2.7188365	1.7864057	2.8287575
C	-2.9870795	1.6281237	0.7369134
C	-3.8771821	2.8471615	0.6358444
H	-4.8853780	2.5898597	0.2862566
H	-3.9726574	3.3206583	1.6148242
H	-3.4658251	3.5888513	-0.0598129
C	-3.2382500	0.0209701	-2.5629194
C	-3.2188756	1.3531354	-1.7960314
C	-1.9220775	-0.2532455	-0.5074913
C	-2.0200155	-0.7354623	-1.9904739
H	-4.1659033	-0.5204745	-2.3443571
H	-3.1684148	0.1569173	-3.6461721
H	-4.2081546	1.8128417	-1.7410519
H	-2.5309080	2.0715103	-2.2669499
H	-2.3250756	-1.0054945	0.1911547
H	-1.1122573	-0.4398950	-2.5267604
H	-2.1182523	-1.8222737	-2.0586984
C	2.9925916	-3.1596846	1.0243184
H	2.8343454	-3.1523604	2.1195295
O	2.9320025	-4.2227872	0.3965017
C	3.2743145	-1.8202925	0.4032395
H	4.1719129	-1.3763331	0.8540876
H	3.4165456	-1.9211118	-0.6748062
H	2.4445329	-1.1293921	0.6030709
