31
-0.000796266 (energy)
C	2.1838333	0.4834198	-1.5162455
O	2.3308536	1.6822557	-1.3188045
O	2.8400927	-0.1283928	-2.5736874
H	2.6881183	-1.0946947	-2.6105012
N	1.3626702	-0.2104398	0.7332373
C	3.6171825	-1.0887423	0.8126149
H	3.6928279	-1.2507504	-0.2546385
H	4.4891475	-1.3514186	1.3967701
C	2.5321042	-0.5499554	1.4181652
C	2.5191706	-0.3004128	2.9101812
H	1.7486070	-0.8948717	3.4178475
H	3.4861485	-0.5674276	3.3407307
H	2.3266165	0.7548058	3.1397330
C	-0.9484381	-0.0064264	0.3573506
C	0.1695226	0.4265895	1.3195449
C	1.2287220	-0.4129030	-0.7042706
C	-0.2487045	-0.0134939	-1.0189859
H	-1.2950652	-1.0128618	0.6189032
H	-1.8090654	0.6685641	0.3797884
H	-0.0031598	0.0745302	2.3389863
H	0.2676186	1.5224125	1.3455326
H	1.4234545	-1.4709594	-0.9471454
H	-0.2663621	0.9924585	-1.4511157
H	-0.7119081	-0.6999199	-1.7329368
C	7.5218357	0.6622433	-1.1931423
H	8.0823546	0.1326058	-0.3994890
O	8.1299043	1.2394447	-2.1014943
C	6.0247680	0.6154657	-1.0679299
H	5.7122621	1.0508669	-0.1093827
H	5.5552216	1.1608525	-1.8893044
H	5.6780086	-0.4264380	-1.0707503
