31
-0.0065567 (energy)
C	-0.0276210	-0.1224920	0.4597991
O	-1.1605606	-0.0750872	-0.0006425
O	1.0607521	0.1584090	-0.3524281
H	1.9129109	0.1361141	0.1287363
N	-0.5573984	0.0758789	2.8879481
C	0.3307818	2.2874860	2.4631283
H	0.9897417	1.9726109	1.6646145
H	0.3414434	3.3429789	2.7005731
C	-0.5070152	1.4522478	3.1225605
C	-1.4418961	1.9742385	4.1912391
H	-1.2195184	1.5428358	5.1757769
H	-1.3470940	3.0588083	4.2714710
H	-2.4884358	1.7426265	3.9580696
C	-0.7175599	-2.2090680	3.4147306
C	-1.4794673	-0.8788408	3.5294022
C	0.2998598	-0.5661230	1.8988553
C	-0.0020923	-2.0915320	2.0515465
H	0.0129275	-2.2905098	4.2278898
H	-1.3790296	-3.0792187	3.4604531
H	-1.6726777	-0.6013739	4.5680106
H	-2.4434931	-0.9274807	3.0008054
H	1.3554252	-0.3372024	2.1219456
H	-0.6758726	-2.4081861	1.2485904
H	0.9082795	-2.6940220	1.9907757
C	4.9470591	0.1989461	-1.3701733
H	5.1398424	-0.8907321	-1.3745182
O	3.8442352	0.6317817	-1.0174059
C	6.0967867	1.0602579	-1.8121536
H	6.3987756	0.7919875	-2.8333688
H	5.8193355	2.1158832	-1.7767566
H	6.9686838	0.8859494	-1.1677738
