31
-0.00655433 (energy)
C	1.2997304	0.2374408	2.8879813
O	0.4705765	0.7096796	3.6543362
O	1.6586709	-1.0977661	2.9954922
H	2.2928105	-1.3800990	2.3053140
N	1.1821263	1.9255875	1.0570654
C	0.0155985	0.0800886	0.0111741
H	0.5520499	-0.6888356	0.5515205
H	-0.7377789	-0.2647653	-0.6845682
C	0.2115655	1.4074268	0.1959648
C	-0.6160904	2.4267644	-0.5553588
H	0.0014789	3.0479162	-1.2169127
H	-1.3616695	1.9201111	-1.1710943
H	-1.1449165	3.0997964	0.1306647
C	2.8842470	3.3735174	1.7853632
C	1.4117104	3.3531194	1.3444813
C	2.0629195	1.0592962	1.8310843
C	3.0444070	2.0408412	2.5484504
H	3.5359703	3.3941196	0.9042816
H	3.1255326	4.2387284	2.4098520
H	1.2373910	3.9657306	0.4571561
H	0.7524529	3.7150746	2.1479077
H	2.5980008	0.3755021	1.1510064
H	2.7308072	2.1677796	3.5898581
H	4.0708396	1.6641655	2.5445042
C	3.4916978	-1.6522891	-1.4191893
H	3.5294533	-0.9390983	-2.2644800
O	2.9527863	-1.3251237	-0.3559164
C	4.1266115	-2.9905620	-1.6741173
H	5.1847520	-2.8622337	-1.9385363
H	4.0435733	-3.6275360	-0.7909721
H	3.6434247	-3.4808892	-2.5296424
