31
-0.00587696 (energy)
C	2.3351921	-0.8484763	-0.2070962
O	2.1662426	-1.7027837	-1.0669919
O	3.6062337	-0.3458192	0.0273465
H	3.6186346	0.3633420	0.7019779
N	0.0000000	0.0000000	0.0000000
C	1.0162233	1.8376336	-1.2045476
H	2.0045730	1.6865279	-0.7906266
H	0.9152016	2.6514751	-1.9102498
C	-0.0489158	1.0513738	-0.9188000
C	-1.3889559	1.2886440	-1.5795161
H	-2.1635684	1.5563301	-0.8493144
H	-1.3098627	2.1059010	-2.2989266
H	-1.7357182	0.3974683	-2.1169351
C	-0.7449261	-1.4002375	1.7345183
C	-1.1030853	-0.9251093	0.3170797
C	1.2215122	-0.3307187	0.7238063
C	0.7972879	-1.4692091	1.7062704
H	-1.0845350	-0.6627078	2.4708527
H	-1.1971256	-2.3649581	1.9827618
H	-2.0673179	-0.4130618	0.2840876
H	-1.1374790	-1.7700334	-0.3872260
H	1.5812245	0.5598384	1.2659385
H	1.1197474	-2.4341024	1.3013147
H	1.2510900	-1.3443210	2.6931497
C	3.1813028	0.4961204	4.7228429
H	3.4219436	1.5564879	4.5171837
O	2.9707577	-0.2842413	3.7875791
C	3.1369445	0.1136950	6.1757232
H	2.3889198	0.7205350	6.7032185
H	2.8938126	-0.9453218	6.2850266
H	4.1051544	0.3210507	6.6504721
