31
-0.00548708 (energy)
C	1.5361395	0.2010891	2.2139696
O	0.8678357	-0.4473607	3.0081286
O	2.5441848	1.0333936	2.6768824
H	3.0435653	1.4671486	1.9553102
N	1.0952359	-1.1048230	0.1364421
C	3.3694175	-1.7939277	0.5987996
H	3.6490456	-0.8717733	1.0911796
H	4.1384586	-2.5524053	0.5367787
C	2.1295443	-2.0438079	0.1143908
C	1.7951335	-3.3794398	-0.5123527
H	1.5244881	-3.2782657	-1.5713095
H	2.6568504	-4.0466325	-0.4489971
H	0.9540293	-3.8640167	-0.0014843
C	-0.7623648	0.0939903	-0.6612423
C	-0.2874649	-1.3284610	-0.3232194
C	1.2812423	0.2291477	0.6943725
C	-0.0682387	0.9633653	0.4094376
H	-0.4199948	0.3716928	-1.6648042
H	-1.8514320	0.1932051	-0.6315110
H	-0.3106749	-1.9894634	-1.1924506
H	-0.9089000	-1.7764403	0.4668813
H	2.1272987	0.7250133	0.1896962
H	-0.6703216	0.9796162	1.3238884
H	0.0911401	1.9959594	0.0872390
C	6.2255798	-0.4896317	2.3268404
H	6.3257343	-1.4302940	1.7526397
O	5.3686623	0.3424717	2.0085507
C	7.1832097	-0.3277981	3.4739380
H	8.2186025	-0.3732011	3.1106926
H	7.0138294	0.6239303	3.9819736
H	7.0611091	-1.1537851	4.1871351
