31
-0.00408196 (energy)
C	0.4124880	0.4315051	3.1192579
O	-0.6712688	0.6869330	3.6272279
O	1.0151539	-0.7947126	3.3566572
H	1.8539485	-0.9101019	2.8654345
N	0.4105481	2.1061025	1.2721947
C	-0.0058770	0.0811904	0.0124872
H	0.5256954	-0.5666831	0.6970962
H	-0.4557191	-0.4000373	-0.8457791
C	-0.1619544	1.4130498	0.2026660
C	-0.9669454	2.2473419	-0.7691862
H	-0.3498492	3.0084316	-1.2639685
H	-1.3948504	1.6076849	-1.5434293
H	-1.7915830	2.7669712	-0.2659809
C	1.5008804	3.8705313	2.3776812
C	0.2371453	3.5400020	1.5671993
C	1.2258790	1.4320513	2.2753164
C	1.7444347	2.5836124	3.1952998
H	2.3396163	4.0600633	1.6979223
H	1.3737835	4.7486845	3.0175940
H	0.1711397	4.1253746	0.6474124
H	-0.6724285	3.7241446	2.1587170
H	2.0572028	0.9031267	1.7798047
H	1.1489888	2.6075189	4.1139188
H	2.7928106	2.4420971	3.4716069
C	3.5113061	-2.3210745	0.7807391
H	4.4627430	-2.2897752	0.2164953
O	2.6310965	-1.4821235	0.5584679
C	3.3965720	-3.4260509	1.7931329
H	4.2052136	-3.3466872	2.5319475
H	2.4303998	-3.3811829	2.3001586
H	3.5107341	-4.4015150	1.3019608
