31
-0.00363635 (energy)
C	-1.8096871	-0.9480204	1.7686471
O	-2.7032392	-0.1221680	1.6369730
O	-1.8070896	-1.7941319	2.8674024
H	-1.0748707	-2.4435029	2.8483328
N	-0.9924959	-1.0546273	-0.5843842
C	-2.1724275	-3.1639744	-0.4466952
H	-2.0086949	-3.2944084	0.6149909
H	-2.7393142	-3.9423938	-0.9399109
C	-1.7498643	-2.0847874	-1.1475327
C	-2.0644598	-1.9433729	-2.6204829
H	-1.1545332	-1.9354758	-3.2343608
H	-2.6842389	-2.7791462	-2.9507449
H	-2.6105539	-1.0148775	-2.8276900
C	0.6907267	0.5811170	-0.4609504
C	-0.5471886	0.1696909	-1.2742468
C	-0.6012690	-1.0688462	0.8199312
C	0.3127987	0.1877718	0.9834973
H	1.5641603	0.0120010	-0.7996141
H	0.9202169	1.6468500	-0.5522868
H	-0.3058338	-0.0339607	-2.3198565
H	-1.3189156	0.9537339	-1.2452593
H	-0.0535600	-2.0003814	1.0404970
H	-0.2622312	0.9939393	1.4508545
H	1.1818465	-0.0211209	1.6132463
C	4.4563331	1.1280822	2.1938628
H	5.2671533	1.2293258	1.4476034
O	3.3464220	0.7065709	1.8497150
C	4.8150555	1.5318580	3.5964894
H	5.1399114	2.5807300	3.6160635
H	3.9599623	1.3999175	4.2628107
H	5.6605676	0.9314748	3.9576853
