31
-0.00358563 (energy)
C	-2.4924497	-0.0298270	0.0522278
O	-2.6725106	-1.1247854	0.5684154
O	-3.5036074	0.9190000	0.0737207
H	-3.2363307	1.7718724	-0.3254820
N	0.0000000	0.0000000	0.0000000
C	-0.4075178	1.5620614	1.8040054
H	-1.3625756	1.8991069	1.4228706
H	-0.0803795	2.0111088	2.7323889
C	0.3455252	0.6052263	1.2109032
C	1.6454287	0.1437879	1.8320924
H	2.5068569	0.3609787	1.1873875
H	1.8036505	0.6519649	2.7852126
H	1.6391913	-0.9365830	2.0218747
C	0.3313830	-0.9094519	-2.1417787
C	0.7437938	-1.0815780	-0.6709127
C	-1.2162524	0.3600956	-0.7186263
C	-1.1427332	-0.4601452	-2.0464675
H	0.9426604	-0.1296792	-2.6105719
H	0.4461138	-1.8295350	-2.7223638
H	1.8203866	-0.9660802	-0.5272675
H	0.4496930	-2.0713359	-0.2901108
H	-1.2221125	1.4458466	-0.9122822
H	-1.7947960	-1.3361274	-1.9661077
H	-1.4684905	0.1301128	-2.9072473
C	1.1686458	1.1036007	6.1554811
H	1.9484543	0.6371863	6.7870974
O	1.3756315	1.2888674	4.9509707
C	-0.1033730	1.4722771	6.8662019
H	0.1103935	2.1746168	7.6829452
H	-0.8131731	1.9239711	6.1699742
H	-0.5520159	0.5807727	7.3241897
