31
-0.00888171 (energy)
C	1.5677228	1.9153961	-0.7018335
O	2.3737316	1.9439225	-1.6292635
O	0.8087682	3.0006853	-0.3537184
H	0.2350249	2.7250152	0.4095597
N	0.3452523	0.9290265	1.2451300
C	0.0108851	0.9806023	3.6499364
H	-0.9633728	0.5119331	3.6002193
H	0.3536259	1.2776764	4.6330220
C	0.7783109	1.2225113	2.5669142
C	2.1294266	1.8937820	2.6857280
H	2.1994511	2.7777653	2.0404228
H	2.2972919	2.2127135	3.7164019
H	2.9523942	1.2221034	2.4107466
C	-0.8887350	-0.2111887	-0.4431882
C	-0.9133578	0.1636774	1.0462484
C	1.3060201	0.6525925	0.1384494
C	0.6117860	-0.4425407	-0.7148281
H	-1.4985967	-1.0932007	-0.6569860
H	-1.2675201	0.6157545	-1.0559338
H	-0.9132539	-0.7361202	1.6812129
H	-1.7782342	0.7723910	1.3283575
H	2.2741213	0.3028296	0.5063689
H	0.8906120	-0.3655759	-1.7680919
H	0.9150919	-1.4314199	-0.3526205
C	5.0247048	-0.3882859	-1.0516462
H	4.8146120	0.4508104	-1.7418355
O	4.1578147	-0.7689188	-0.2568932
C	6.3965740	-0.9914694	-1.1666360
H	7.1622397	-0.2258537	-0.9832363
H	6.5160137	-1.8086234	-0.4520940
H	6.5603235	-1.3655690	-2.1859735
