31
-0.00426006 (energy)
C	-1.9204937	0.1827707	-1.7021651
O	-2.5277438	1.1874952	-2.0659870
O	-1.5883013	-0.8279725	-2.5641949
H	-1.0980343	-1.5136339	-2.0376253
N	-0.8125366	-1.3660289	-0.0799207
C	-0.9248569	-3.5083476	1.0582403
H	0.1379671	-3.5420264	1.2596649
H	-1.5030382	-4.3676335	1.3737011
C	-1.5324466	-2.4814075	0.4284559
C	-3.0212276	-2.4862762	0.1569005
H	-3.2385095	-2.3255444	-0.9059742
H	-3.4496918	-3.4472699	0.4486092
H	-3.5485897	-1.7060957	0.7201502
C	0.9734810	0.2050395	-0.2028788
C	0.6308757	-1.2237264	0.2452305
C	-1.4442304	-0.0262238	-0.2534653
C	-0.3215683	0.9828562	0.1081252
H	1.8443754	0.6050829	0.3235185
H	1.1892693	0.2314276	-1.2778250
H	0.7887111	-1.3478091	1.3280542
H	1.2150504	-1.9936722	-0.2686297
H	-2.3132667	0.1105676	0.3953664
H	-0.4262572	1.9150911	-0.4513483
H	-0.3756197	1.2181846	1.1771293
C	2.8470997	2.1098290	-3.6063628
H	3.8045482	2.6531722	-3.7188506
O	2.6509646	1.3986164	-2.6145363
C	1.8566242	2.3089011	-4.7192000
H	2.2944733	1.9927152	-5.6754225
H	0.9453288	1.7388601	-4.5264026
H	1.6111100	3.3744378	-4.8200347
