31
-0.00834633 (energy)
C	-2.4771176	-0.1796911	-0.2993755
O	-3.6610554	-0.0591051	0.0077737
O	-2.0768862	-0.7823395	-1.4619927
H	-1.0839330	-0.7462693	-1.4846127
N	0.0000000	-0.0000000	0.0000000
C	2.0792307	-1.2039450	0.3533712
H	2.6961749	-0.4030687	-0.0329941
H	2.5940590	-2.1085020	0.6515491
C	0.7356585	-1.1294248	0.4516556
C	-0.0860065	-2.2823837	0.9862463
H	-0.8732261	-2.5780222	0.2822351
H	0.5561297	-3.1483257	1.1594227
H	-0.5736017	-2.0383829	1.9384843
C	-0.3638680	2.2893192	-0.5475868
C	0.7327649	1.2203768	-0.4279583
C	-1.3292069	0.3614316	0.5716720
C	-1.3359175	1.9135271	0.5894158
H	0.0345428	3.3025393	-0.4463945
H	-0.8652825	2.2210852	-1.5205709
H	1.4777627	1.5006562	0.3331181
H	1.2657043	1.0356642	-1.3660339
H	-1.4711733	-0.0391958	1.5787777
H	-2.3453707	2.3106436	0.4616074
H	-0.9491251	2.2671410	1.5519227
C	-0.0649327	-2.3890616	-4.1840771
H	0.7874348	-2.6870018	-4.8238303
O	0.1387053	-1.8194434	-3.1060795
C	-1.4266290	-2.7261487	-4.7237377
H	-1.5108264	-3.8089503	-4.8865208
H	-2.2044146	-2.3974801	-4.0312038
H	-1.5751356	-2.2464187	-5.7002715
