31
-0.00421408 (energy)
C	2.9263302	1.2618411	-1.0405073
O	3.3403477	2.1617829	-1.7680267
O	3.1075490	-0.0632296	-1.3344400
H	2.6968695	-0.5865504	-0.5960319
N	1.7317833	0.2606255	0.9161867
C	-0.1845439	-1.0321076	1.6605567
H	0.2847112	-1.3346883	2.5876736
H	-1.1729265	-1.4298335	1.4679551
C	0.4053822	-0.2245769	0.7548631
C	-0.2863966	0.1598113	-0.5350682
H	0.3309173	-0.0759928	-1.4103218
H	-1.2285046	-0.3841198	-0.6286418
H	-0.5191546	1.2312658	-0.5780961
C	3.6782216	0.9318250	2.1137270
C	2.4380795	0.0298652	2.2035513
C	2.1939925	1.5310044	0.2863194
C	3.1581045	2.1546674	1.3307776
H	4.0690338	1.1957046	3.1002457
H	4.4801671	0.4316167	1.5574488
H	1.7938955	0.3249716	3.0466141
H	2.6785333	-1.0314567	2.3214782
H	1.3666754	2.2108828	0.0667051
H	3.9432534	2.7421363	0.8496812
H	2.5932832	2.8185649	1.9950725
C	2.0351908	-3.6006569	0.8100158
H	2.2441160	-3.2345075	1.8331813
O	2.0255512	-2.8109176	-0.1408948
C	1.7769748	-5.0766337	0.6921382
H	0.9190217	-5.3608508	1.3159843
H	1.5812185	-5.3486711	-0.3472135
H	2.6411826	-5.6421149	1.0652190
