31
-0.00403678 (energy)
C	-0.3487829	-1.7092122	1.8910344
O	0.4344157	-2.0385141	2.7791508
O	-1.6929654	-1.5685564	2.1111215
H	-2.1035935	-1.2883137	1.2505302
N	-1.0633008	-1.1037624	-0.4286468
C	-2.3104779	-1.7898188	-2.3962421
H	-2.4245768	-0.7800230	-2.7685255
H	-2.7876016	-2.5728987	-2.9718464
C	-1.6392344	-2.0969756	-1.2668678
C	-1.5185774	-3.5243900	-0.7788461
H	-1.8671273	-3.6284024	0.2557761
H	-2.1201382	-4.1846199	-1.4068633
H	-0.4842642	-3.8891105	-0.8137415
C	-0.0940698	1.0054580	0.1052204
C	-1.0324758	0.3084604	-0.8913442
C	0.1036154	-1.3903976	0.4547442
C	0.9473282	-0.0879911	0.4194407
H	0.3550854	1.9099193	-0.3140592
H	-0.6383432	1.2906798	1.0136176
H	-0.6325232	0.3621343	-1.9160259
H	-2.0436060	0.7274805	-0.9042594
H	0.6906743	-2.2431891	0.1039922
H	1.4850942	0.0657784	1.3576277
H	1.6838000	-0.1544841	-0.3894219
C	4.0829340	0.9326581	-2.5945701
H	4.6869169	1.6358420	-1.9901530
O	3.2202391	0.2325868	-2.0526569
C	4.3957304	0.9106938	-4.0645204
H	5.4497647	0.6458301	-4.2223365
H	3.7554520	0.1923973	-4.5809218
H	4.2521204	1.9101639	-4.4960862
