31
-0.00395183 (energy)
C	-1.0258613	-1.4665200	-1.8482410
O	-1.9334122	-1.1897886	-2.6294973
O	0.0683146	-2.1998710	-2.2224391
H	0.6563322	-2.2775835	-1.4249650
N	0.1636747	-1.5435603	0.3510987
C	0.9043999	-2.9421615	2.1930531
H	1.6725817	-2.2486109	2.5095739
H	0.8384393	-3.8726189	2.7426709
C	0.0697008	-2.7095274	1.1588586
C	-0.9807851	-3.7171565	0.7448565
H	-0.8951060	-3.9768144	-0.3172102
H	-0.8678044	-4.6335071	1.3277129
H	-2.0000962	-3.3457746	0.9095467
C	0.6967943	0.7219802	-0.1552053
C	1.0856755	-0.4507711	0.7574711
C	-1.0102845	-0.9911306	-0.3843425
C	-0.8282133	0.5484352	-0.3072216
H	0.9720650	1.6887687	0.2750642
H	1.1928893	0.6342915	-1.1293567
H	0.9276448	-0.1970931	1.8174190
H	2.1269368	-0.7674116	0.6406695
H	-1.9606832	-1.2928348	0.0635811
H	-1.2475460	1.0452676	-1.1849174
H	-1.3441907	0.9308710	0.5807993
C	0.3577501	0.3972930	4.8859156
H	0.9056205	0.3635119	5.8467901
O	0.9135188	0.8311085	3.8705648
C	-1.0565905	-0.1093992	4.9304319
H	-1.6431362	0.4714679	5.6547277
H	-1.5188991	-0.0396449	3.9435267
H	-1.0733454	-1.1525567	5.2730033
