31
-0.00394667 (energy)
C	-1.9204937	-1.3827329	-1.0093667
O	-2.5277438	-1.1954496	-2.0613945
O	-1.5883013	-2.6346442	-0.5650523
H	-1.0980343	-2.5214522	0.2920327
N	-0.8125366	-0.7522278	1.1430554
C	-0.9248569	-0.8377109	3.5674382
H	0.1379671	-0.6801115	3.6973173
H	-1.5030382	-0.9941568	4.4693321
C	-1.5324466	-0.8696501	2.3631898
C	-3.0212276	-1.1072583	2.2316285
H	-3.2385095	-1.9473689	1.5609934
H	-3.4496918	-1.3351281	3.2097279
H	-3.5485897	-0.2293795	1.8375974
C	0.9734810	-0.0731784	-0.2790088
C	0.6308757	-0.3994874	1.1823934
C	-1.4442304	-0.2326193	-0.1040222
C	-0.3215683	0.5850673	-0.7971158
H	1.8443754	0.5827167	-0.3622580
H	1.1892693	-0.9909151	-0.8393347
H	0.7887111	0.4762241	1.8312640
H	1.2150504	-1.2294763	1.5922559
H	-2.3132667	0.3976811	0.1019288
H	-0.4262572	0.5666665	-1.8841917
H	-0.3756197	1.6285162	-0.4664142
C	2.6786781	2.5876803	3.2490053
H	3.7200860	2.7186586	3.5995722
O	2.4533239	2.0199769	2.1743238
C	1.6165939	3.1384564	4.1587860
H	1.7708602	4.2150805	4.3108695
H	0.6243816	2.9658370	3.7365372
H	1.6842521	2.6658542	5.1476657
