31
-0.00533996 (energy)
C	0.9673372	-2.9866102	-1.1758933
O	0.8144146	-4.1780011	-0.9155229
O	2.1790262	-2.3589090	-1.0625356
H	2.0464370	-1.4129835	-1.3371514
N	0.2737021	-0.6758166	-1.8370509
C	-0.0372334	1.6201122	-1.1093247
H	0.0228764	2.0250831	-2.1111662
H	-0.1497312	2.3365305	-0.3054151
C	0.0442585	0.3023438	-0.8313947
C	-0.0313654	-0.2152518	0.5886795
H	0.8331404	-0.8429462	0.8364253
H	-0.0539526	0.6218838	1.2893067
H	-0.9327038	-0.8159275	0.7642371
C	0.2249716	-1.6012202	-4.0312449
C	0.2424753	-0.2691957	-3.2664202
C	-0.1752370	-2.0899343	-1.6855335
C	-0.6131918	-2.5140242	-3.1130151
H	-0.2047072	-1.4973528	-5.0313317
H	1.2419761	-1.9964736	-4.1419109
H	-0.6660035	0.3180537	-3.4728672
H	1.1076297	0.3581477	-3.5032258
H	-1.0037085	-2.1894377	-0.9793802
H	-0.4528982	-3.5814757	-3.2800049
H	-1.6811738	-2.3047261	-3.2421648
C	4.4462827	-0.1553125	-0.7793838
H	4.6390660	-0.9928473	-0.0822805
O	3.3434587	0.4030132	-0.7873696
C	5.5960102	0.2203913	-1.6716009
H	5.8979992	-0.6415403	-2.2814562
H	5.3185590	1.0517998	-2.3230281
H	6.4679073	0.5010625	-1.0659340
