31
-0.00351518 (energy)
C	-1.2334239	1.6482793	-1.4212203
O	-1.7828329	2.0731827	-2.4352209
O	-1.0847500	2.4085157	-0.2920677
H	-0.6251208	1.8432842	0.3839672
N	0.0000000	-0.0000000	0.0000000
C	2.0955884	-0.5388539	1.1025884
H	1.6361021	-1.2177215	1.8092087
H	3.1605350	-0.3771071	1.2117127
C	1.4104704	0.1103793	0.1384778
C	2.0958416	1.0615460	-0.8184877
H	1.6191148	2.0492090	-0.8170610
H	3.1413538	1.1897262	-0.5309835
H	2.0813747	0.6928978	-1.8518956
C	-2.1360354	-1.0362226	0.1919093
C	-0.7342115	-0.9998719	0.8189029
C	-0.6881359	0.2135054	-1.3058013
C	-1.8478795	-0.8181690	-1.3075219
H	-2.6529274	-1.9789778	0.3909598
H	-2.7568816	-0.2228373	0.5865289
H	-0.2423663	-1.9825611	0.7466121
H	-0.7354060	-0.7027958	1.8724081
H	-0.0225590	0.0512026	-2.1576134
H	-2.7057861	-0.4546208	-1.8774878
H	-1.5029159	-1.7512188	-1.7674014
C	-0.2357799	0.1975905	-5.3535416
H	0.2333607	-0.7329295	-5.7258620
O	0.2006552	0.7475452	-4.3361497
C	-1.3968030	0.7042781	-6.1624736
H	-2.1866425	-0.0574134	-6.2074902
H	-1.7961125	1.6217424	-5.7249945
H	-1.0815326	0.8953473	-7.1968384
