31
-0.00348562 (energy)
C	1.9589931	-2.7128468	-0.2027687
O	2.5259332	-3.3834048	-1.0627228
O	0.9285229	-3.2053096	0.5526520
H	0.6504326	-2.4831050	1.1762345
N	1.4580812	-0.6711785	1.1532196
C	-0.1473105	1.0879577	1.6283116
H	0.2618348	1.3003739	2.6074850
H	-1.0231953	1.6544304	1.3382840
C	0.3611237	0.1581892	0.7931921
C	-0.2550311	-0.1127632	-0.5622315
H	-0.5022232	-1.1737179	-0.6888009
H	-1.1745520	0.4650486	-0.6753661
H	0.4135491	0.1677898	-1.3858413
C	3.4532502	-1.2692820	2.3085580
C	2.1956043	-0.3935778	2.4135410
C	2.3692295	-1.2681488	0.1345598
C	3.7712964	-1.2348794	0.7997379
H	4.2737411	-0.8886435	2.9229641
H	3.2381912	-2.2945805	2.6330316
H	2.4598990	0.6740338	2.4698381
H	1.5709036	-0.6299877	3.2807136
H	2.3703840	-0.7053199	-0.8025319
H	4.3961517	-2.0627887	0.4574598
H	4.2744570	-0.2968041	0.5391333
C	3.4973290	3.0505046	0.8057797
H	3.0175791	2.7895184	1.7682293
O	3.4350831	2.2687983	-0.1497688
C	4.1973125	4.3801608	0.7723803
H	4.9810253	4.4136895	1.5409614
H	4.6395798	4.5547695	-0.2107210
H	3.4889168	5.1857843	1.0068148
