31
-0.0033894 (energy)
C	-1.2334239	2.0349618	-0.7717656
O	-1.7828329	2.7810491	-1.5792889
O	-1.0847500	2.3631575	0.5493070
H	-0.6251208	1.6007961	0.9912514
N	0.0000000	-0.0000000	0.0000000
C	2.0955884	-0.8834645	0.8517953
H	1.6361021	-1.7630697	1.2836148
H	3.1605350	-0.7687949	1.0096593
C	1.4104704	0.0563604	0.1678785
C	2.0958416	1.2774662	-0.4060568
H	1.6191148	2.2050779	-0.0669154
H	3.1413538	1.2995840	-0.0920510
H	2.0813747	1.2844966	-1.5032276
C	-2.1360354	-1.0393676	-0.1740733
C	-0.7342115	-1.2196535	0.4275407
C	-0.6881359	0.6472398	-1.1540287
C	-1.8478795	-0.3216286	-1.5084989
H	-2.6529274	-1.9933470	-0.3094683
H	-2.7568816	-0.4100032	0.4749420
H	-0.2423663	-2.1183544	0.0235100
H	-0.7354060	-1.3008133	1.5191178
H	-0.0225590	0.7860619	-2.0099811
H	-2.7057861	0.2149348	-1.9197509
H	-1.5029159	-1.0411205	-2.2597661
C	6.3220445	0.9029288	-0.9887177
H	6.1542614	0.2498234	-1.8661486
O	5.4238971	1.0631585	-0.1546494
C	7.6787996	1.5450271	-0.9112349
H	7.8586927	2.1566356	-1.8054499
H	7.7560810	2.1688242	-0.0182168
H	8.4607337	0.7743004	-0.8919253
