31
-0.0033218 (energy)
C	2.6097160	-2.1007719	0.1201928
O	3.1940226	-2.8945288	-0.6140593
O	1.9164419	-2.5005371	1.2313218
H	1.5478458	-1.6819050	1.6576399
N	1.7661622	0.1291611	0.8777161
C	-0.1822200	1.5419119	1.2025201
H	0.3067822	2.1782116	1.9286748
H	-1.2226682	1.7578282	0.9950855
C	0.4281338	0.5093919	0.5846445
C	-0.3023979	-0.3614367	-0.4144632
H	-0.2420742	-1.4228771	-0.1452905
H	-1.3569588	-0.0809095	-0.4517505
H	0.1019172	-0.2578914	-1.4292785
C	4.0157394	0.4433796	1.5945864
C	2.5925100	0.9983261	1.7558470
C	2.6249819	-0.5796000	-0.1144123
C	4.0463916	-0.0008177	0.1178927
H	4.7790738	1.1907141	1.8278191
H	4.1728297	-0.4156795	2.2579946
H	2.5342686	2.0441619	1.4157718
H	2.2238028	0.9601704	2.7857635
H	2.2991057	-0.4080223	-1.1436278
H	4.8202558	-0.7373319	-0.1095129
H	4.1967858	0.8656273	-0.5361147
C	2.9741955	2.6742495	-2.5573052
H	2.8783681	3.3861295	-1.7155055
O	2.8561135	1.4599379	-2.3585186
C	3.2480702	3.2935085	-3.8991655
H	4.1787687	3.8753864	-3.8635951
H	3.3269418	2.5215207	-4.6675345
H	2.4454522	3.9953055	-4.1620316
