31
-0.00331714 (energy)
C	1.8736820	-1.2428144	2.4865709
O	1.9236870	-1.2089983	3.7141483
O	2.8445994	-0.6888877	1.6956641
H	2.5839981	-0.8551149	0.7510878
N	0.8870838	-1.7492401	0.2442099
C	-0.1005177	-0.8321770	-1.7759867
H	0.1294207	-1.7041845	-2.3743448
H	-0.5743594	-0.0056121	-2.2902297
C	0.1929478	-0.7300402	-0.4630337
C	-0.1363871	0.5167416	0.3289944
H	0.7490689	0.9189512	0.8358906
H	-0.5252195	1.2892665	-0.3374883
H	-0.8973083	0.3314927	1.0975804
C	1.6196232	-3.9663739	0.7142497
C	1.1428445	-3.0519979	-0.4242366
C	0.7364097	-1.9371467	1.7160186
C	0.7921053	-3.4749564	1.9194874
H	1.4550477	-5.0239755	0.4906885
H	2.6911846	-3.8250621	0.9001461
H	0.2141388	-3.4338784	-0.8764409
H	1.8799483	-2.9315982	-1.2244309
H	-0.2052375	-1.5293035	2.0926926
H	1.2211590	-3.7347749	2.8897655
H	-0.2236454	-3.8839934	1.8746516
C	4.9325217	1.0177770	0.9094551
H	4.3720027	1.5474144	1.7031084
O	4.3244534	0.4405754	0.0011031
C	6.4295894	1.0645548	1.0346678
H	6.7420953	0.6291537	1.9932150
H	6.8991360	0.5191679	0.2132933
H	6.7763487	2.1064585	1.0318473
