31
-0.0032258 (energy)
C	-2.9456687	1.5979409	-0.0890386
O	-3.4768658	2.5276843	-0.6923603
O	-2.6732096	1.6518097	1.2518242
H	-2.2585657	0.7839729	1.5022210
N	-1.8612179	-0.6403261	0.1795757
C	0.1951510	-1.8374511	0.6651622
H	-0.3147270	-2.7439765	0.9643896
H	1.2746693	-1.8415495	0.7476536
C	-0.4435046	-0.7311982	0.2307393
C	0.3132910	0.5185247	-0.1638340
H	-0.0472723	1.3985074	0.3824014
H	1.3756964	0.3953371	0.0559482
H	0.2220074	0.7384230	-1.2349804
C	-4.0938711	-1.4510904	0.0030696
C	-2.6767207	-1.8564281	0.4354336
C	-2.5641227	0.2708359	-0.7690766
C	-3.8334324	-0.5147648	-1.1945701
H	-4.7079798	-2.3161954	-0.2615996
H	-4.6041634	-0.9109859	0.8097042
H	-2.3029681	-2.6968274	-0.1702510
H	-2.6084785	-2.1464743	1.4886881
H	-1.9505215	0.5182754	-1.6392408
H	-4.6629659	0.1584128	-1.4220308
H	-3.6129203	-1.1010445	-2.0938596
C	4.4831192	-2.4981896	1.2131067
H	5.4768659	-2.0336487	1.3588879
O	3.5716524	-1.8568495	0.6783889
C	4.3532708	-3.9132338	1.7028693
H	4.5761400	-3.9629380	2.7770693
H	3.3449402	-4.2902809	1.5193437
H	5.0856174	-4.5565017	1.1972131
