31
-0.00316807 (energy)
C	-2.9456687	-0.1897936	1.5891260
O	-3.4768658	0.2429141	2.6095102
O	-2.6732096	-1.5196399	1.4093381
H	-2.2585657	-1.6155344	0.5112047
N	-1.8612179	-0.0656561	-0.6617811
C	0.1951510	-0.3359869	-1.9250402
H	-0.3147270	-0.4732519	-2.8697539
H	1.2746693	-0.4165134	-1.9434009
C	-0.4435046	-0.1002627	-0.7601571
C	0.3132910	0.0713041	0.5390966
H	-0.0472723	-0.6194401	1.3108577
H	1.3756964	-0.1237478	0.3796157
H	0.2220074	1.0879925	0.9416567
C	-4.0938711	0.2489562	-1.4295782
C	-2.6767207	-0.1064531	-1.9038371
C	-2.5641227	0.7103624	0.4002700
C	-3.8334324	1.2658099	-0.2995095
H	-4.7079798	0.6598284	-2.2355809
H	-4.6041634	-0.6392120	-1.0377497
H	-2.3029681	0.6359635	-2.6262928
H	-2.6084785	-1.0933403	-2.3723725
H	-1.9505215	1.5243395	0.7950527
H	-4.6629659	1.3729189	0.4029391
H	-3.6129203	2.2532435	-0.7207223
C	3.8549869	-0.1687049	1.8226320
H	3.0751783	0.2977095	2.4542482
O	3.6480012	-0.3539718	0.6181216
C	5.1270057	-0.5373810	2.5333529
H	4.9132392	-1.2397207	3.3500962
H	5.8368058	-0.9890751	1.8371252
H	5.5756484	0.3541235	2.9913406
