31
-0.00518514 (energy)
C	1.0258614	-0.0646071	-2.3584956
O	1.9334123	-0.7787776	-2.7790931
O	-0.0683145	0.2566426	-3.1165370
H	-0.6563321	0.8287802	-2.5555890
N	-0.1636747	1.4081176	-0.7232243
C	-0.9043998	3.6634939	-0.2112090
H	-1.6725816	3.3356590	0.4770657
H	-0.8384391	4.7295531	-0.3882639
C	-0.0697007	2.8205183	-0.8539136
C	0.9807853	3.3262915	-1.8187491
H	0.8951062	2.8425177	-2.7992442
H	0.8678046	4.4029096	-1.9612741
H	2.0000964	3.1476573	-1.4538693
C	-0.6967943	-0.6528329	0.3451857
C	-1.0856755	0.8322038	0.2905064
C	1.0102846	0.5121994	-0.9315099
C	0.8282133	-0.6176039	0.1171820
H	-0.9720651	-1.1168640	1.2962310
H	-1.1928893	-1.2118319	-0.4574227
H	-0.9276448	1.3191966	1.2655346
H	-2.1269368	0.9996859	-0.0025015
H	1.9606832	1.0312380	-0.7823122
H	1.2475459	-1.5623717	-0.2358142
H	1.3441907	-0.3397580	1.0432705
C	2.7360562	2.4110834	2.6736250
H	3.8408954	2.3641609	2.7149955
O	2.1088909	1.6252074	1.9545460
C	2.1016872	3.4689541	3.5324402
H	2.4758104	4.4612935	3.2472367
H	1.0147236	3.4431705	3.4303509
H	2.3773497	3.3166962	4.5844103
