31
-0.00154892 (energy)
C	1.8736820	-2.7748408	0.1669767
O	1.9236870	-3.8210459	0.8100510
O	2.8445994	-1.8129320	0.2512378
H	2.5839981	-1.0780186	-0.3650073
N	0.8870838	-1.0861120	-1.3927814
C	-0.1005177	1.1219610	-1.6086798
H	0.1294207	1.2041507	-2.6630395
H	-0.5743594	1.9805910	-1.1499752
C	0.1929478	0.0359788	-0.8637502
C	-0.1363871	-0.0265467	0.6120085
H	0.7490689	-0.2644268	1.2137804
H	-0.5252195	0.9369067	0.9477934
H	-0.8973083	-0.7847861	0.8358713
C	1.6196232	-2.6017454	-3.0778557
C	1.1428445	-1.1585993	-2.8552260
C	0.7364097	-2.4546891	-0.8196088
C	0.7921053	-3.3998031	-2.0496567
H	1.4550477	-2.9369366	-4.1055461
H	2.6911846	-2.6920804	-2.8625278
H	0.2141388	-0.9579192	-3.4120464
H	1.8799483	-0.4054109	-3.1510539
H	-0.2052375	-2.5769767	-0.2780694
H	1.2211590	-4.3699978	-1.7895271
H	-0.2236454	-3.5654926	-2.4263111
C	2.9006253	-1.1463745	4.9585049
H	3.1412662	-2.2131336	4.7890942
O	2.6900801	-0.7329537	6.1042650
C	2.8562668	-0.2900977	3.7240414
H	2.1082423	-0.6799267	3.0208064
H	2.6131348	0.7424364	3.9835351
H	3.8244768	-0.3225745	3.2070035
