31
-0.00741857 (energy)
C	1.0157634	-0.8653696	2.1996426
O	0.4434607	-1.3881030	3.1534819
O	2.2445767	-1.2814692	1.7615468
H	2.4849369	-0.7155561	0.9806894
N	1.3454919	0.7778323	0.3424422
C	2.6316774	2.6720674	-0.4669745
H	2.3766614	2.4980745	-1.5042760
H	3.3096014	3.4924374	-0.2679932
C	2.1714476	1.9158154	0.5511959
C	2.5678390	2.1902548	1.9856964
H	2.9918501	1.2996609	2.4650770
H	3.3182038	2.9827176	2.0194587
H	1.7166767	2.5165436	2.5965164
C	-0.2440167	-0.5848098	-0.7932967
C	0.8133750	0.5063779	-1.0186516
C	0.3979607	0.2836278	1.3827207
C	-0.8356487	-0.2117240	0.5813500
H	-0.9956303	-0.6015186	-1.5872637
H	0.2253142	-1.5752435	-0.7540546
H	0.3586067	1.4184873	-1.4358543
H	1.6216234	0.1983307	-1.6894498
H	0.1127149	1.0663902	2.0904186
H	-1.3370566	-1.0384326	1.0894595
H	-1.5533487	0.6097153	0.4754496
C	2.8989376	-2.9715263	-1.3481554
H	2.8118386	-3.3413705	-0.3088230
O	2.8185753	-1.7607451	-1.5838733
C	3.1136338	-4.0290446	-2.3944052
H	2.2849222	-4.7494864	-2.3786713
H	3.1879996	-3.5766758	-3.3855707
H	4.0294174	-4.5946933	-2.1771605
