31
-0.00120243 (energy)
C	1.0157634	-1.5655036	1.7710139
O	0.4434607	-2.3829448	2.4885443
O	2.2445767	-1.8066717	1.2170241
H	2.4849369	-1.0078184	0.6768119
N	1.3454919	0.6138011	0.5878248
C	2.6316774	2.6706366	0.4750887
H	2.3766614	2.8619150	-0.5591649
H	3.3096014	3.3734767	0.9426531
C	2.1714476	1.6117573	1.1732023
C	2.5678390	1.3790178	2.6150557
H	2.9918501	0.3781754	2.7609249
H	3.3182038	2.1121419	2.9178201
H	1.7166767	1.4767162	3.3006360
C	-0.2440167	-0.2782179	-0.9454718
C	0.8133750	0.8242390	-0.7840279
C	0.3979607	-0.2063955	1.3963388
C	-0.8356487	-0.3977889	0.4738764
H	-0.9956303	-0.0223662	-1.6972714
H	0.2253142	-1.2223427	-1.2473446
H	0.3586067	1.8240332	-0.8641103
H	1.6216234	0.7641959	-1.5197304
H	0.1127149	0.2871135	2.3290779
H	-1.3370566	-1.3484246	0.6685920
H	-1.5533487	0.4103316	0.6553114
C	1.5742952	-5.7954611	-0.6194369
H	0.4694560	-5.8048133	-0.6812898
O	2.2014605	-6.8596922	-0.5737417
C	2.2086645	-4.4330495	-0.5973413
H	1.8345412	-3.8561986	0.2590008
H	3.2956280	-4.5184227	-0.5357096
H	1.9330021	-3.8734924	-1.5010666
