31
-0.000599578 (energy)
C	4.3204294	-2.0581115	0.2981243
O	5.4652769	-2.3372716	-0.0511381
O	3.4394789	-3.0027456	0.7527027
H	2.5946002	-2.5311257	0.9796908
N	2.3337597	-0.5871066	0.6819397
C	0.0749808	-0.0298185	-0.0144100
H	-0.1810923	0.4365439	0.9280515
H	-0.7116908	-0.0815007	-0.7564736
C	1.2893981	-0.5533148	-0.2818826
C	1.5958235	-1.2082947	-1.6112959
H	1.9814893	-2.2265863	-1.4805567
H	0.6886594	-1.2648079	-2.2163118
H	2.3419601	-0.6475458	-2.1882563
C	3.5618097	0.1281824	2.5933498
C	2.1586393	0.1366540	1.9683750
C	3.7728138	-0.6196011	0.2916836
C	4.4863541	0.2460734	1.3644502
H	3.7005692	0.9445447	3.3074116
H	3.7434060	-0.8152701	3.1222076
H	1.8153032	1.1658843	1.7796397
H	1.4034881	-0.3602845	2.5855686
H	3.9410582	-0.2142034	-0.7094483
H	5.5078933	-0.0977901	1.5412207
H	4.5306143	1.2858760	1.0210517
C	3.5024006	-0.8103877	-4.6394412
H	4.3132209	-0.6502898	-3.9035594
O	2.3924895	-0.2965912	-4.4602133
C	3.8611230	-1.6695393	-5.8193796
H	4.1859789	-2.6618513	-5.4790381
H	3.0060298	-1.7734510	-6.4906432
H	4.7066351	-1.2288999	-6.3641359
