31
9.6922e-05 (energy)
C	-3.3992844	1.8505302	2.8304089
O	-4.4521298	2.4214179	3.1064417
O	-2.2139253	2.1573508	3.4434618
H	-1.5208749	1.5574154	3.0593690
N	-1.9024982	0.2668851	1.6017001
C	-0.0640910	0.0404919	0.0311714
H	0.1995738	-0.9539090	0.3672500
H	0.5635463	0.4717787	-0.7384029
C	-1.0959518	0.7489086	0.5349654
C	-1.4172367	2.1430383	0.0415960
H	-1.4556702	2.8646338	0.8665636
H	-0.6515061	2.4743387	-0.6627344
H	-2.3831347	2.1875910	-0.4771513
C	-2.9414846	-1.3729697	2.9817788
C	-1.7323220	-1.1352762	2.0647291
C	-3.3118797	0.7144108	1.7955999
C	-4.0553455	-0.5504271	2.3023580
H	-3.1915692	-2.4338794	3.0684632
H	-2.7422404	-0.9912506	3.9904228
H	-1.7468234	-1.8222269	1.2040874
H	-0.7699735	-1.2549016	2.5723747
H	-3.7612594	1.0846206	0.8704398
H	-4.8831971	-0.2891063	2.9652348
H	-4.4636487	-1.0989370	1.4459140
C	3.7323589	-0.7180985	-0.7894330
H	3.5645759	-1.6956099	-0.2986139
O	2.8342114	0.1311219	-0.8023938
C	5.0891138	-0.5302936	-1.4083218
H	5.2690069	-1.3047186	-2.1659174
H	5.1663950	0.4574789	-1.8675710
H	5.8710480	-0.6451125	-0.6459513
