31
-0.00482504 (energy)
C	0.9673372	-0.4749514	-3.1744270
O	0.8144146	-1.2961341	-4.0760166
O	2.1790262	-0.2592715	-2.5741430
H	2.0464370	0.4515155	-1.8922553
N	0.2737021	1.2530246	-1.5037997
C	-0.0372334	1.7707594	0.8483961
H	0.0228764	2.8408651	0.6981906
H	-0.1497312	1.4327623	1.8707873
C	0.0442585	0.8711809	-0.1538599
C	-0.0313654	-0.6174373	0.1079262
H	0.8331404	-1.1458386	-0.3118002
H	-0.0539526	-0.8056306	1.1832204
H	-0.9327038	-1.0698124	-0.3244955
C	0.2249716	2.6905507	-3.4023196
C	0.2424753	2.6942052	-1.8663402
C	-0.1752370	0.4147479	-2.6527029
C	-0.6131918	1.4389384	-3.7337162
H	-0.2047072	3.6085850	-3.8124111
H	1.2419761	2.5887636	-3.7999521
H	-0.6660035	3.1666182	-1.4609908
H	1.1076297	3.2129565	-1.4414476
H	-1.0037085	-0.2465506	-2.3857988
H	-0.4528982	1.0498302	-4.7416513
H	-1.6811738	1.6554343	-3.6170336
C	3.7556763	-2.7680713	-0.6260061
H	4.7071132	-2.2637722	-0.8810220
O	2.8754667	-2.1561035	-0.0105888
C	3.6409422	-4.1973183	-1.0767470
H	4.4495838	-4.7974687	-0.6386087
H	2.6747700	-4.6139814	-0.7843774
H	3.7551043	-4.2596828	-2.1671098
