31
-0.00735693 (energy)
C	2.9263302	-1.5320263	-0.5725328
O	3.3403477	-2.6120474	-0.9881457
O	3.1075490	-1.1240442	0.7219784
H	2.6968695	-0.2229036	0.8059835
N	1.7317833	0.6631282	-0.6838016
C	-0.1845439	1.9541381	0.0635531
H	0.2847112	2.9083352	-0.1379627
H	-1.1729265	1.9862031	0.5042947
C	0.4053822	0.7660191	-0.1829422
C	-0.2863966	-0.5432883	0.1291334
H	0.3309173	-1.1833781	0.7709725
H	-1.2285046	-0.3523599	0.6469783
H	-0.5191546	-1.1162788	-0.7772595
C	3.6782216	1.3646288	-1.8638475
C	2.4380795	1.8933989	-1.1276396
C	2.1939925	-0.5175422	-1.4690484
C	3.1581045	0.0751536	-2.5313855
H	4.0690338	2.0870394	-2.5856333
H	4.4801671	1.1329819	-1.1525153
H	1.7938955	2.4759595	-1.8047407
H	2.6785333	2.5261874	-0.2674713
H	1.3666754	-1.0476730	-1.9480332
H	3.9432534	-0.6352226	-2.7996003
H	2.5932832	0.3185011	-3.4384851
C	1.8015817	-0.4047898	3.8250033
H	1.7755829	-1.4912200	3.6162538
O	2.0096656	0.3976492	2.9080492
C	1.5712268	-0.0166385	5.2586536
H	2.3271929	-0.4852471	5.9028337
H	1.6137457	1.0686365	5.3724387
H	0.5938534	-0.3852792	5.5972666
