31
-0.00617936 (energy)
C	0.4359861	2.4620322	-0.0796248
O	0.6899721	3.5452057	-0.6019431
O	0.3079892	2.3111903	1.2753337
H	0.0936634	1.3557243	1.4453866
N	0.0000000	-0.0000000	0.0000000
C	0.8397536	-2.1736622	0.6837849
H	-0.1406676	-2.6317903	0.6977136
H	1.6686467	-2.7987299	0.9910437
C	1.0579021	-0.8892216	0.3330386
C	2.4471396	-0.2890842	0.3424796
H	2.4893217	0.6223510	0.9509657
H	3.1594412	-1.0057686	0.7562120
H	2.7925948	-0.0258630	-0.6651998
C	-2.1589372	0.6223435	-0.7905142
C	-1.3787926	-0.5349402	-0.1489370
C	0.2040543	1.1764221	-0.8936585
C	-1.1097767	1.2738494	-1.7144609
H	-3.0424364	0.2741611	-1.3325327
H	-2.4927740	1.3339735	-0.0257226
H	-1.3724445	-1.4198290	-0.8044882
H	-1.7757130	-0.8418463	0.8238897
H	1.0662917	1.0519943	-1.5539486
H	-1.3361086	2.3073457	-1.9859227
H	-1.0045865	0.6933432	-2.6380508
C	2.3731589	-0.7371996	-4.2249731
H	3.4325231	-1.0504725	-4.1602380
O	1.7681876	-0.3834404	-3.2067019
C	1.7694899	-0.7805568	-5.6007573
H	1.8281645	-1.7992128	-6.0068904
H	0.7269991	-0.4566512	-5.5711805
H	2.3376203	-0.1342503	-6.2829076
