31
-0.00553699 (energy)
C	2.4771176	-0.1796910	0.2993756
O	3.6610554	-0.0591049	-0.0077736
O	2.0768862	-0.7823392	1.4619928
H	1.0839330	-0.7462691	1.4846128
N	0.0000000	-0.0000000	0.0000000
C	-2.0792307	-1.2039451	-0.3533711
H	-2.6961749	-0.4030688	0.0329941
H	-2.5940589	-2.1085022	-0.6515489
C	-0.7356584	-1.1294249	-0.4516555
C	0.0860067	-2.2823838	-0.9862461
H	0.8732263	-2.5780222	-0.2822348
H	-0.5561296	-3.1483258	-1.1594224
H	0.5736018	-2.0383831	-1.9384841
C	0.3638679	2.2893193	0.5475866
C	-0.7327649	1.2203768	0.4279582
C	1.3292069	0.3614316	-0.5716720
C	1.3359175	1.9135271	-0.5894160
H	-0.0345429	3.3025393	0.4463941
H	0.8652823	2.2210854	1.5205707
H	-1.4777628	1.5006561	-0.3331183
H	-1.2657043	1.0356642	1.3660337
H	1.4711733	-0.0391959	-1.5787777
H	2.3453706	2.3106437	-0.4616075
H	0.9491250	2.2671409	-1.5519229
C	1.2167947	1.1127621	-4.7705858
H	1.9748013	1.9180615	-4.7318332
O	1.0735355	0.3497227	-3.8086815
C	0.4173937	1.0385135	-6.0412247
H	1.0860146	0.8912896	-6.8998970
H	-0.3030691	0.2192971	-5.9922889
H	-0.1116804	1.9857677	-6.2103499
