31
-0.0054042 (energy)
C	-0.1231274	0.1753325	0.3980972
O	1.0622159	-0.1394465	0.4785066
O	-0.8577256	-0.0115666	-0.7422901
H	-1.7793528	0.3090316	-0.5536399
N	-2.2974383	1.1410727	1.1712365
C	-3.9102662	2.9377629	0.9099982
H	-4.7250274	2.3703090	1.3406503
H	-4.1513888	3.9292649	0.5481070
C	-2.6530334	2.4632856	0.7890172
C	-1.5492080	3.2904897	0.1664919
H	-1.0610379	2.7574065	-0.6582874
H	-1.9596226	4.2221155	-0.2282460
H	-0.7694705	3.5553846	0.8916695
C	-2.4669308	-0.8961876	2.3935608
C	-3.2876949	0.3038562	1.8977849
C	-0.9086231	0.7786753	1.5763206
C	-1.0940198	-0.2675415	2.7078765
H	-2.9220965	-1.3761655	3.2642107
H	-2.3723348	-1.6519160	1.6044496
H	-3.7134126	0.8684873	2.7420431
H	-4.1110628	0.0241093	1.2330024
H	-0.3416684	1.6419285	1.9344755
H	-0.2702925	-0.9845324	2.7286068
H	-1.1242416	0.2460012	3.6755703
C	3.5376720	-2.5916819	2.4235166
H	4.2211714	-3.4579507	2.5071224
O	2.6162326	-2.4487322	3.2350133
C	3.8220630	-1.6517504	1.2856551
H	3.7752049	-2.1907431	0.3299679
H	3.1025525	-0.8302622	1.2794469
H	4.8402599	-1.2499882	1.3732650
