31
-0.00454563 (energy)
C	-0.3487829	0.0937992	-2.5472769
O	0.4344157	-0.2248111	-3.4392846
O	-1.6929654	-0.1554186	-2.6254616
H	-2.1035935	0.1830803	-1.7860738
N	-1.0633008	1.1210599	-0.3811222
C	-2.3104779	2.9113554	0.6851548
H	-2.4245768	2.3771060	1.6194246
H	-2.7876016	3.8812207	0.6227393
C	-1.6392344	2.4207035	-0.3774328
C	-1.5185774	3.2004721	-1.6688033
H	-1.8671273	2.6151079	-2.5282278
H	-2.1201382	4.1099192	-1.6121017
H	-0.4842642	3.5022946	-1.8765097
C	-0.0940698	-0.8378599	0.5656924
C	-1.0324758	0.3366506	0.8810838
C	0.1036154	0.7728025	-1.2420846
C	0.9473282	-0.2022062	-0.3778698
H	0.3550854	-1.2612098	1.4682556
H	-0.6383432	-1.6402589	0.0531567
H	-0.6325232	0.9541866	1.7005366
H	-2.0436060	0.0239643	1.1603183
H	0.6906743	1.6515378	-1.5215567
H	1.4850942	-0.9230554	-0.9977217
H	1.6838000	0.3686573	0.1990140
C	3.1013680	2.5155316	2.6074456
H	4.1184223	2.2281119	2.9354294
O	2.5276540	1.8657642	1.7261586
C	2.5128132	3.7120094	3.3010751
H	3.1572603	4.5889033	3.1534543
H	1.5124809	3.9228017	2.9170457
H	2.4627589	3.5341810	4.3835191
