31
-0.00452626 (energy)
C	-0.1741467	0.1633962	-0.3838721
O	-0.9917072	-0.6199732	0.0941629
O	1.0273415	0.4294553	0.2167007
H	1.5079934	1.0781244	-0.3629293
N	0.7117549	1.8450899	-2.0102519
C	1.3335384	4.1645798	-2.3720623
H	1.9800853	3.9390069	-3.2101524
H	1.2867809	5.2015546	-2.0643635
C	0.6260562	3.2304466	-1.7032846
C	-0.2547700	3.5933306	-0.5274040
H	-0.0023485	3.0050928	0.3631061
H	-0.1309291	4.6499484	-0.2816259
H	-1.3186121	3.4269098	-0.7385597
C	1.0814634	-0.0660215	-3.3829146
C	1.4584979	1.4142540	-3.2211060
C	-0.4018705	0.8972327	-1.7176121
C	-0.3847592	-0.1016064	-2.9056306
H	1.1997444	-0.4118384	-4.4134514
H	1.7098088	-0.6968762	-2.7426219
H	1.1356087	2.0029423	-4.0940345
H	2.5321605	1.5783279	-3.0852484
H	-1.3692152	1.4015281	-1.6479778
H	-0.7297353	-1.0920218	-2.6005060
H	-1.0502875	0.2633028	-3.6961900
C	-0.0640521	-3.0789345	1.8469596
H	-0.6119224	-2.4354184	2.5613180
O	-0.6198208	-4.0639114	1.3480070
C	1.3502885	-2.6621712	1.5553654
H	1.9368343	-2.6415728	2.4835823
H	1.8125971	-3.3499767	0.8441894
H	1.3670434	-1.6428657	1.1472615
