31
-0.00451355 (energy)
C	-0.3001419	-0.0063528	-0.3380202
O	-0.7709302	-0.6566786	0.5925844
O	0.9277472	0.5955782	-0.2671952
H	1.0849402	1.0453495	-1.1394136
N	-0.2634967	1.0733040	-2.5943501
C	-0.2839378	3.1654305	-3.8272912
H	0.1536271	2.7321976	-4.7173178
H	-0.4752326	4.2307509	-3.8533716
C	-0.5681663	2.4565604	-2.7150337
C	-1.1675671	3.1104661	-1.4889176
H	-0.5677306	2.9136732	-0.5921359
H	-1.2190937	4.1917842	-1.6313283
H	-2.1859880	2.7562863	-1.2854029
C	0.1444252	-1.1451347	-3.3594406
C	0.2156830	0.3282464	-3.7879532
C	-1.0249069	0.1696198	-1.6844919
C	-1.1005005	-1.1788351	-2.4495509
H	0.0615962	-1.8204226	-4.2154262
H	1.0413262	-1.4269676	-2.7947201
H	-0.4458642	0.5235045	-4.6464666
H	1.2241198	0.6544574	-4.0613951
H	-2.0265367	0.5485751	-1.4652905
H	-1.1269894	-2.0275645	-1.7625363
H	-2.0132451	-1.2015013	-3.0557309
C	3.5265715	-3.0858943	-1.9067822
H	3.7451656	-4.1612081	-1.7636048
O	2.9485277	-2.7018455	-2.9297113
C	3.9770561	-2.1812731	-0.7942166
H	5.0619846	-2.2716375	-0.6499559
H	3.7217220	-1.1433996	-1.0182698
H	3.5056180	-2.4816071	0.1509601
