31
-0.00448027 (energy)
C	2.9263302	-0.2701852	-1.6130401
O	3.3403477	-0.4502645	-2.7561723
O	3.1075490	-1.1872738	-0.6124616
H	2.6968695	-0.8094540	0.2099516
N	1.7317833	0.9237537	0.2323851
C	-0.1845439	0.9220305	1.7241097
H	0.2847112	1.5736469	2.4497108
H	-1.1729265	0.5563696	1.9722497
C	0.4053822	0.5414421	0.5719209
C	-0.2863966	-0.3834770	-0.4059348
H	0.3309173	-1.2593709	-0.6393492
H	-1.2285046	-0.7364796	0.0183366
H	-0.5191546	0.1149870	-1.3553556
C	3.6782216	2.2964537	0.2498794
C	2.4380795	1.9232640	1.0759117
C	2.1939925	1.0134621	-1.1827290
C	3.1581045	2.2298209	-1.2006078
H	4.0690338	3.2827439	0.5146124
H	4.4801671	1.5645985	0.4049334
H	1.7938955	2.8009310	1.2418734
H	2.6785333	1.4947307	2.0540068
H	1.3666754	1.1632097	-1.8813280
H	3.9432534	2.1069137	-1.9499191
H	2.5932832	3.1370659	-1.4434125
C	1.4595003	5.3648013	-3.5647811
H	1.5553277	4.6594071	-4.4120231
O	1.5775822	4.9581717	-2.4034365
C	1.1856258	6.7938090	-3.9416205
H	0.2549273	6.8598212	-4.5208352
H	1.1067542	7.4164505	-3.0479351
H	1.9882438	7.1745472	-4.5871094
