31
-0.00714587 (energy)
C	2.2413014	-0.6205766	1.5293449
O	2.5065507	-0.4463648	2.7152887
O	2.7655968	-1.6689737	0.8123045
H	2.4664915	-1.5913086	-0.1269924
N	1.4141549	0.1371383	-0.7131005
C	2.5301791	0.8095202	-2.7607703
H	1.7761965	0.3721362	-3.4028010
H	3.3695604	1.2821843	-3.2544656
C	2.4829653	0.7582877	-1.4116761
C	3.6005068	1.3328223	-0.5677950
H	4.1096784	0.5597512	0.0198684
H	4.3456147	1.8000389	-1.2146168
H	3.2405303	2.0955094	0.1332234
C	-0.9458328	0.0976576	-0.2952864
C	0.1114658	-0.0769809	-1.4015739
C	1.2437427	0.2431264	0.7549890
C	-0.1986513	-0.2849238	0.9951131
H	-1.2689930	1.1444044	-0.2482691
H	-1.8337195	-0.5186362	-0.4634871
H	-0.0068396	0.6610391	-2.2024762
H	0.0698814	-1.0748625	-1.8574176
H	1.3404088	1.2715086	1.1219331
H	-0.1777139	-1.3750552	1.1143310
H	-0.6320842	0.1430833	1.9014458
C	3.4901202	2.5062010	3.6165154
H	3.3942928	1.5535735	4.1714034
O	3.3720383	2.5212974	2.3861330
C	3.7639946	3.7201423	4.4593780
H	4.6946931	3.5840704	5.0262394
H	3.8428662	4.6108923	3.8325444
H	2.9613765	3.8571490	5.1961593
