31
-0.00405324 (energy)
C	-1.1501066	-2.4497763	0.6506103
O	-2.2011303	-2.9855134	0.3107506
O	-0.0365509	-3.1803482	0.9888816
H	0.6748360	-2.5576610	1.2786466
N	0.2055907	-0.5147163	1.4899507
C	1.1309376	0.0548217	3.6601853
H	2.0230913	0.5053024	3.2441001
H	1.0584206	0.0356417	4.7400376
C	0.1538022	-0.4979761	2.9088333
C	-1.0405794	-1.1704072	3.5510277
H	-1.0829619	-2.2409661	3.3178966
H	-0.9777580	-1.0711904	4.6364147
H	-1.9897208	-0.7254938	3.2287172
C	0.3251887	0.7831993	-0.5217105
C	1.0867312	0.4490412	0.7746854
C	-0.9394466	-0.9344049	0.6483381
C	-0.5358611	-0.4668024	-0.7783587
H	-0.3167794	1.6579931	-0.3638021
H	0.9963879	1.0078187	-1.3556709
H	1.2442975	1.3358562	1.3982607
H	2.0695250	0.0036712	0.5720716
H	-1.8840463	-0.4676429	0.9507067
H	0.0606418	-1.2464952	-1.2675430
H	-1.4152777	-0.2793423	-1.3980188
C	3.2348556	-1.6895493	-1.8377033
H	2.2774071	-2.2385980	-1.7575729
O	3.4309907	-0.6820034	-1.1489404
C	4.2253311	-2.2572286	-2.8153415
H	3.7874820	-2.2871586	-3.8220387
H	5.1366264	-1.6556247	-2.8291368
H	4.4708453	-3.2929931	-2.5456601
