31
-0.00401123 (energy)
C	0.3774134	2.3613666	0.7539042
O	0.6887749	3.5342305	0.5678562
O	0.3629115	1.8021155	2.0089727
H	0.1365326	0.8431479	1.9258568
N	0.0000000	0.0000000	0.0000000
C	1.3076843	-2.0365096	0.1820686
H	0.4393349	-2.6709185	0.3065383
H	2.2722084	-2.5268871	0.2125744
C	1.2372919	-0.6959476	0.0309159
C	2.4907918	0.1459026	-0.0746811
H	2.5848554	0.8482047	0.7620786
H	3.3696714	-0.5016145	-0.0625335
H	2.5197220	0.7319669	-1.0011762
C	-2.1148064	0.2705331	-1.0954793
C	-1.2525398	-0.7402271	-0.3163060
C	-0.1078302	1.4329986	-0.3611764
C	-1.6322615	1.6403433	-0.5850384
H	-1.9200714	0.1782298	-2.1705981
H	-3.1860996	0.1178248	-0.9359068
H	-1.0149648	-1.6254475	-0.9163537
H	-1.7471074	-1.0817517	0.6024182
H	0.4499986	1.6863761	-1.2701258
H	-2.1158723	1.8834143	0.3689401
H	-1.8233350	2.4633061	-1.2769318
C	-2.7784734	-2.3427623	3.6661994
H	-2.2179544	-2.5690133	4.5931363
O	-2.1704049	-2.1110451	2.6152132
C	-4.2755411	-2.3438937	3.7998597
H	-4.5880468	-1.6069079	4.5516835
H	-4.7450875	-2.1123243	2.8414869
H	-4.6223005	-3.3239275	4.1535615
