31
-0.00646636 (energy)
C	-0.4515186	2.1664788	1.6881776
O	0.2996069	3.0104867	2.1684179
O	-1.7729726	2.4341737	1.4230966
H	-2.2033287	1.6078036	1.0919161
N	-1.1038174	-0.1889198	1.1282951
C	-2.6459869	-1.7735434	2.1289150
H	-2.9384065	-2.2020092	1.1787014
H	-3.1300837	-2.1760869	3.0094355
C	-1.7558917	-0.7646634	2.2505733
C	-1.4349936	-0.1637985	3.6022797
H	-1.7300611	0.8904778	3.6629374
H	-1.9765723	-0.7034948	4.3815588
H	-0.3653746	-0.2203379	3.8376943
C	0.3313823	-0.5567602	-0.7559990
C	-1.0284095	-0.9502222	-0.1490356
C	0.0143402	0.7750410	1.2550380
C	0.6008888	0.8463736	-0.1829708
H	1.1068474	-1.2563559	-0.4220202
H	0.3206664	-0.5674904	-1.8497185
H	-1.0897526	-2.0240820	0.0587536
H	-1.8655216	-0.6889647	-0.8095492
H	0.7819129	0.4461521	1.9651270
H	0.0626670	1.6050996	-0.7640818
H	1.6571380	1.1231165	-0.1673393
C	2.8631154	4.3355298	-0.4431549
H	3.5558250	4.8249613	-1.1539243
O	2.9897389	3.1338836	-0.1823389
C	1.8057929	5.2266584	0.1459434
H	1.1908477	5.6620279	-0.6530201
H	1.1703585	4.6634979	0.8327114
H	2.2729338	6.0653870	0.6789792
