31
-0.00391545 (energy)
C	-2.4846250	0.1117584	-0.3178256
O	-3.6443741	-0.0653970	0.0437926
O	-2.1543485	0.3004011	-1.6382424
H	-1.1707734	0.3706867	-1.7118250
N	0.0000000	0.0000000	0.0000000
C	1.7168889	-1.5132751	-0.8079913
H	2.4616697	-0.7338402	-0.9068889
H	2.0197750	-2.5103914	-1.1007822
C	0.4548218	-1.2899986	-0.3810917
C	-0.5612533	-2.4105019	-0.3246287
H	-1.4018066	-2.2366877	-1.0069054
H	-0.0879544	-3.3499667	-0.6166039
H	-0.9762293	-2.5434843	0.6817570
C	0.2921946	1.8685719	1.4726610
C	0.9894992	1.0489442	0.3707411
C	-1.3092991	0.2302126	0.6544454
C	-1.2073943	1.6924136	1.1726932
H	0.5317554	1.4511648	2.4579041
H	0.5990378	2.9184756	1.4712883
H	1.9093867	0.5757110	0.7312568
H	1.2494954	1.6657732	-0.4994395
H	-1.4964628	-0.4581953	1.4866872
H	-1.5222976	2.3865170	0.3839638
H	-1.8540414	1.8526401	2.0379493
C	3.6755445	0.9607029	-2.9737854
H	2.7180960	0.6167835	-3.4092104
O	3.8716795	0.8679898	-1.7568435
C	4.6660200	1.5235228	-3.9542292
H	4.2281709	2.3803831	-4.4834979
H	5.5773153	1.8362719	-3.4401225
H	4.9115343	0.7720896	-4.7163867
