31
-0.00386126 (energy)
C	-0.2735706	-0.2215586	-0.2915945
O	0.8874720	-0.4608980	-0.6107597
O	-0.5835570	0.5890516	0.7737640
H	-1.5659923	0.6041697	0.8849697
N	-2.7369953	-0.6888717	-0.2962415
C	-4.2420789	-1.7116311	1.3097613
H	-5.0687531	-1.0576040	1.0630704
H	-4.4185636	-2.4388014	2.0919275
C	-3.0277666	-1.6337464	0.7230003
C	-1.8909905	-2.5345968	1.1558202
H	-1.0560471	-1.9655324	1.5815878
H	-2.2433623	-3.2272544	1.9225764
H	-1.4939004	-3.1294775	0.3244732
C	-3.2877106	0.1276813	-2.4815614
C	-3.8519656	-0.0660244	-1.0615808
C	-1.4834436	-0.7177931	-1.0857555
C	-1.7694641	0.2570655	-2.2625477
H	-3.5069016	-0.7543648	-3.0949717
H	-3.7138323	0.9995713	-2.9862202
H	-4.7213298	-0.7325406	-1.0528438
H	-4.1552923	0.8853965	-0.6054213
H	-1.2429993	-1.7170305	-1.4669028
H	-1.5134143	1.2810507	-1.9643354
H	-1.1720545	0.0045381	-3.1410834
C	2.7057727	3.0942975	-0.9898919
H	2.9243668	3.1400216	-2.0737317
O	2.1277289	4.0349967	-0.4340479
C	3.1562573	1.8415485	-0.2922089
H	4.2411858	1.7151711	-0.4062511
H	2.9009232	1.8819730	0.7688034
H	2.6848192	0.9628836	-0.7521083
