31
-0.00366603 (energy)
C	-0.4292183	-0.0424340	0.1514180
O	-0.1664043	1.1556411	0.0993183
O	0.4850599	-1.0046090	-0.2042277
H	0.0533343	-1.8917341	-0.1379206
N	-2.0134276	-1.9828644	0.2603937
C	-2.8376194	-3.5560810	-1.3937695
H	-2.8672563	-4.3854056	-0.6985426
H	-3.1325516	-3.7698407	-2.4130973
C	-2.4261247	-2.3141817	-1.0572177
C	-2.3459581	-1.2103733	-2.0898381
H	-1.3173254	-0.8603897	-2.2370419
H	-2.7096221	-1.5797511	-3.0506523
H	-2.9535575	-0.3399798	-1.8142664
C	-2.6226416	-1.8631953	2.5756058
C	-2.4351787	-2.8417902	1.4011014
C	-1.7502125	-0.5908176	0.6945415
C	-1.6716446	-0.6991285	2.2434420
H	-3.6593861	-1.5073150	2.6044520
H	-2.4003085	-2.3225834	3.5430678
H	-3.3659647	-3.3603529	1.1464558
H	-1.6757535	-3.6045065	1.6174979
H	-2.5444601	0.1047585	0.3997419
H	-0.6465010	-0.9467741	2.5447559
H	-1.9427525	0.2445589	2.7214043
C	3.2068118	2.1808179	-1.8434953
H	3.4157370	3.1189827	-1.2950612
O	3.1971723	2.1745600	-3.0795697
C	2.9485957	0.9743838	-0.9850553
H	2.0906426	1.1576614	-0.3244702
H	2.7528394	0.0979088	-1.6063827
H	3.8128035	0.7810116	-0.3357745
