31
-0.00500645 (energy)
C	2.3535508	0.3324038	0.7982300
O	3.4051651	-0.0544833	1.2998228
O	2.0283107	1.6655179	0.7261558
H	1.1233561	1.7501876	0.3367168
N	0.0000000	0.0000000	0.0000000
C	-2.1710428	0.5329387	0.9450441
H	-2.6142491	0.7656813	-0.0148502
H	-2.8089046	0.6481342	1.8119753
C	-0.8845287	0.1512963	1.1004129
C	-0.3037895	-0.0988822	2.4756500
H	0.5040959	0.6032117	2.7136166
H	-1.0823200	0.0255210	3.2308119
H	0.1011392	-1.1130708	2.5764264
C	0.4422698	-1.1258140	-2.0694466
C	-0.5544968	-0.1829616	-1.3696350
C	1.3467481	-0.6045269	0.1279743
C	1.7742727	-0.8609929	-1.3445897
H	0.1350783	-2.1685711	-1.9258736
H	0.5074828	-0.9421484	-3.1457674
H	-1.5568932	-0.6201762	-1.3051445
H	-0.6427314	0.7811103	-1.8873902
H	1.3401800	-1.5436658	0.6932504
H	2.2571322	0.0362836	-1.7505198
H	2.4872789	-1.6852809	-1.4128886
C	2.7886690	-4.9578874	-0.4510823
H	3.6747832	-4.9485350	0.2117127
O	2.2788602	-3.8936564	-0.8192119
C	2.2885115	-6.3202992	-0.8419207
H	2.0246604	-6.8971500	0.0545572
H	1.4162331	-6.2349261	-1.4933949
H	3.0805847	-6.8798562	-1.3570219
