31
-0.00334616 (energy)
C	0.2968639	2.3219057	2.0636513
O	0.1962207	3.5294174	1.8662781
O	1.5028309	1.7289788	2.3504446
H	1.3668211	0.7520499	2.4203427
N	-0.5162178	-0.0451975	1.9133666
C	0.0333729	-1.9065393	0.4560007
H	-0.0825359	-2.6479457	1.2363081
H	0.3322643	-2.2730779	-0.5176629
C	-0.1402521	-0.5814915	0.6535140
C	0.0987579	0.4132727	-0.4620320
H	0.9242718	1.0971953	-0.2317723
H	0.3574034	-0.1192846	-1.3792783
H	-0.7876104	1.0250418	-0.6688926
C	-2.1547973	-0.0096197	3.6624980
C	-1.1611314	-0.9267925	2.9251562
C	-0.9026490	1.3729446	2.1007294
C	-1.5400872	1.3943709	3.5185482
H	-3.1337171	-0.0455355	3.1698032
H	-2.2962063	-0.2997245	4.7076271
H	-1.6663564	-1.7575125	2.4204126
H	-0.4124233	-1.3540738	3.6049778
H	-1.6239094	1.7204387	1.3520015
H	-0.7583589	1.5471891	4.2725941
H	-2.2632988	2.2067319	3.6161598
C	3.6000932	1.7613028	-0.1370811
H	2.8202847	2.3023313	-0.7060886
O	3.3931075	0.6072629	0.2545321
C	4.8721120	2.5252461	0.1025787
H	4.6583456	3.4515413	0.6524222
H	5.5819122	1.9180316	0.6683091
H	5.3207547	2.8214679	-0.8549106
