31
-0.00599257 (energy)
C	0.4515187	-2.6132148	0.8453888
O	-0.2996067	-3.5705747	1.0079995
O	1.7729727	-2.7741026	0.5047370
H	2.2033288	-1.8842983	0.4761643
N	1.1038174	-0.2083730	1.1248650
C	2.6459869	0.9384541	2.6071131
H	2.9384065	1.6660724	1.8607483
H	3.1300838	1.0155656	3.5722097
C	1.7558918	-0.0511926	2.3763774
C	1.4349938	-1.0781317	3.4410581
H	1.7300613	-2.0895736	3.1374740
H	1.9765725	-0.8375122	4.3579278
H	0.3653748	-1.1055186	3.6816131
C	-0.3313824	0.7817503	-0.5199835
C	1.0284095	0.9438901	0.1849474
C	-0.0143401	-1.1575486	0.9142704
C	-0.6008888	-0.7327514	-0.4614131
H	-1.1068474	1.3249277	0.0331298
H	-0.3206665	1.1659075	-1.5440737
H	1.0897526	1.8819201	0.7474870
H	1.8655216	0.9242972	-0.5250877
H	-0.7819128	-1.0913588	1.6940224
H	-0.0626670	-1.2469690	-1.2669783
H	-1.6571379	-0.9981510	-0.5413759
C	4.7475544	0.1973637	-1.0379341
H	4.8980278	1.1096195	-0.4298799
O	3.6759877	-0.4161638	-0.9801330
C	5.9123962	-0.2050326	-1.8983403
H	6.8001577	-0.3776014	-1.2753262
H	5.6771035	-1.1108949	-2.4610369
H	6.1661089	0.6060375	-2.5937600
