31
-0.00324073 (energy)
C	2.5155708	1.7665470	0.5378162
O	2.6622901	2.9649602	0.3154452
O	3.1763222	0.8050078	-0.1881446
H	2.8758357	-0.0857282	0.1185666
N	1.2855970	-0.1971233	1.4959539
C	-0.1769347	-1.8781908	0.5338876
H	0.1805200	-2.6672942	1.1831486
H	-0.9284222	-2.1553573	-0.1942283
C	0.2894654	-0.6109559	0.5725611
C	-0.2042110	0.4340960	-0.4048204
H	0.5985074	0.7964990	-1.0579284
H	-0.9790836	0.0034758	-1.0419970
H	-0.6345329	1.3058660	0.1026653
C	1.9002843	0.0406379	3.8005794
C	1.5254054	-0.9987240	2.7275260
C	1.6649078	1.2224248	1.6871798
C	2.5063528	1.2035669	2.9943185
H	0.9992323	0.3759515	4.3278290
H	2.5941749	-0.3585630	4.5459697
H	0.6159759	-1.5500986	2.9902774
H	2.3264366	-1.7320253	2.5665647
H	0.7978917	1.8835487	1.8001423
H	3.5561222	0.9947275	2.7547187
H	2.4648029	2.1669418	3.5068374
C	-0.1367645	5.2610523	2.2306818
H	0.1970610	6.0003264	1.4779421
O	0.1276965	4.0627185	2.0821270
C	-0.9044336	5.8245786	3.3935233
H	-1.8023006	6.3461910	3.0360288
H	-1.1925814	5.0284372	4.0832381
H	-0.2951642	6.5690736	3.9229865
