31
-0.00307456 (energy)
C	2.7433609	-0.8958970	1.1871692
O	2.9499510	-1.6170458	2.1589894
O	3.0184661	0.4502321	1.2077302
H	2.7304799	0.8455633	0.3483399
N	1.6657973	-0.3598869	-1.0124704
C	-0.2143827	1.0358457	-1.6507594
H	0.2378758	1.3466431	-2.5839609
H	-1.1869842	1.4529167	-1.4231511
C	0.3845578	0.2029100	-0.7718979
C	-0.2712227	-0.1449238	0.5472260
H	0.3155740	0.2094532	1.4029884
H	-1.2545224	0.3260404	0.6035277
H	-0.4105126	-1.2259256	0.6686134
C	3.0119195	-1.7239844	-2.4522141
C	2.1931936	-0.4203094	-2.4035289
C	2.2497472	-1.4231479	-0.1615655
C	3.4583472	-1.9358651	-0.9942744
H	2.3738866	-2.5547830	-2.7762664
H	3.8568295	-1.6623260	-3.1441516
H	1.3585575	-0.4331505	-3.1129878
H	2.8084048	0.4611612	-2.6267216
H	1.5486609	-2.2416640	0.0386131
H	4.3433723	-1.3264230	-0.7743914
H	3.6967169	-2.9732389	-0.7502888
C	0.0903137	-0.8756254	-5.7807221
H	-0.1282804	-1.7913961	-5.1992038
O	0.6683574	0.0760994	-5.2439749
C	-0.3601709	-0.8977890	-7.2144761
H	-1.4450995	-1.0597412	-7.2669010
H	-0.1048369	0.0412867	-7.7099738
H	0.1112672	-1.7354061	-7.7454723
