31
-0.00305519 (energy)
C	0.1556477	0.1417490	-0.4057554
O	1.0538762	0.2984844	0.4163087
O	-1.0686168	-0.3755735	-0.0568674
H	-1.6193265	-0.4643215	-0.8733336
N	-0.7235676	-0.0878831	-2.7426580
C	-1.4044594	-1.9901021	-4.0874659
H	-2.2014965	-1.4494480	-4.5818573
H	-1.2860118	-3.0310630	-4.3596385
C	-0.6016418	-1.4430097	-3.1488057
C	0.4549676	-2.2682679	-2.4462035
H	0.2612783	-2.3524613	-1.3702673
H	0.4662598	-3.2786270	-2.8596070
H	1.4596570	-1.8457405	-2.5677410
C	-0.6650688	2.2129360	-3.4123435
C	-1.4167867	0.8863438	-3.6298846
C	0.2667689	0.5813954	-1.8669523
C	-0.0978195	2.0879567	-1.9867251
H	0.1524846	2.3031420	-4.1374582
H	-1.3135236	3.0859282	-3.5300009
H	-1.3553649	0.5455193	-4.6692018
H	-2.4795386	0.9670084	-3.3665560
H	1.3014607	0.4118601	-2.1866907
H	-0.8669132	2.3416897	-1.2470278
H	0.7706979	2.7225273	-1.7983347
C	3.4853656	2.3551430	1.6092569
H	2.7168551	1.6378018	1.2637195
O	4.5640193	1.9430288	2.0504826
C	3.1115290	3.8065755	1.4967051
H	2.2009005	4.0079871	2.0765636
H	3.9244638	4.4398626	1.8581761
H	2.8842014	4.0580286	0.4522402
