31
-0.00301735 (energy)
C	-2.6402612	1.0116565	-1.3204556
O	-2.8818043	1.1617159	-2.5147373
O	-2.4965385	2.0788820	-0.4669085
H	-2.2557880	1.7375038	0.4293474
N	-1.8450778	-0.3168357	0.6517656
C	0.2259730	-0.3440505	1.9169006
H	-0.2665402	-0.5417584	2.8604791
H	1.3023784	-0.2340581	1.9478924
C	-0.4332668	-0.1987145	0.7467770
C	0.3055210	0.1405815	-0.5300139
H	0.0054221	1.1161313	-0.9306212
H	1.3786473	0.1804565	-0.3333790
H	0.1369784	-0.6044080	-1.3169609
C	-3.7602726	-1.7209228	0.9777062
C	-2.5964502	-1.0352214	1.7176939
C	-2.5632339	-0.3582817	-0.6436474
C	-3.9932139	-0.8281163	-0.2545333
H	-3.4622150	-2.7281987	0.6632558
H	-4.6542936	-1.8164964	1.6006385
H	-1.9372769	-1.7604868	2.2071781
H	-2.9516380	-0.3349331	2.4849802
H	-2.1126387	-1.0566166	-1.3583882
H	-4.6067476	0.0403036	0.0146525
H	-4.4827523	-1.3395599	-1.0859603
C	4.0317731	-1.3478144	-0.6486905
H	3.8379912	-1.0785422	-1.7044007
O	3.3417096	-0.8581766	0.2524639
C	5.1581732	-2.3176136	-0.4255533
H	6.0940326	-1.9086976	-0.8292880
H	5.2779735	-2.5258348	0.6397488
H	4.9627339	-3.2539051	-0.9649743
