31
-0.00287764 (energy)
C	-1.2898320	-1.6201180	1.4136533
O	-1.7729977	-2.0052332	2.4745052
O	-1.0870121	-2.4714718	0.3542997
H	-0.6441032	-1.9706659	-0.3742603
N	0.0000000	0.0000000	0.0000000
C	2.2705778	0.0234245	-0.8570217
H	1.9930854	0.5009111	-1.7881514
H	3.3164610	-0.2281515	-0.7364175
C	1.3849200	-0.2922812	0.1129520
C	1.8240334	-1.0177528	1.3667442
H	1.3581194	-2.0065625	1.4528974
H	2.9058312	-1.1632258	1.3465750
H	1.5786179	-0.4577687	2.2771785
C	-1.6690130	1.6986918	-0.2729665
C	-0.4556153	1.0436749	-0.9591658
C	-0.9494086	-0.1563644	1.1268249
C	-2.2234573	0.5885533	0.6380567
H	-1.3414037	2.5537184	0.3302946
H	-2.4108148	2.0610358	-0.9905244
H	0.3537186	1.7610115	-1.1338690
H	-0.7208303	0.5965541	-1.9261375
H	-0.5810246	0.2874275	2.0589751
H	-2.8542760	-0.0984249	0.0608509
H	-2.8135535	0.9590282	1.4789064
C	-1.6618767	-4.2770429	5.7269233
H	-1.8556585	-3.4974071	6.4879749
O	-2.3519403	-5.3022844	5.7003850
C	-0.5354766	-3.9853861	4.7754838
H	0.4003829	-3.8401996	5.3314828
H	-0.4156763	-4.8038542	4.0625080
H	-0.7309158	-3.0500881	4.2343420
