31
-0.00462336 (energy)
C	1.9386035	1.5129170	0.4896561
O	2.7552430	2.0391547	1.2402182
O	1.6576286	2.0244846	-0.7543378
H	0.9404455	1.4818490	-1.1653967
N	0.0000000	0.0000000	0.0000000
C	-2.3633370	0.3924852	-0.3887832
H	-2.4515115	-0.4035802	-1.1171397
H	-3.2592390	0.9666561	-0.1903018
C	-1.2075484	0.7091658	0.2347351
C	-1.1321909	1.8752553	1.1968583
H	-0.4544163	2.6592531	0.8387913
H	-2.1220509	2.3214066	1.3107954
H	-0.7861499	1.5701119	2.1917677
C	1.1233901	-2.1160184	0.0782945
C	-0.0526138	-1.3703275	-0.5798930
C	1.2217595	0.2007861	0.8139714
C	2.1271477	-0.9991842	0.4173098
H	0.7856196	-2.6115470	0.9962730
H	1.5527936	-2.8807770	-0.5753179
H	-1.0166153	-1.8333606	-0.3423732
H	0.0415555	-1.3357746	-1.6731581
H	1.0222516	0.1892917	1.8917592
H	2.7197235	-0.7378688	-0.4679054
H	2.8205140	-1.2557185	1.2210054
C	4.3601265	-2.5609196	3.9209528
H	5.3951371	-2.4211529	3.5551642
O	3.4067954	-2.1285731	3.2634968
C	4.2299869	-3.2903918	5.2286271
H	4.7788423	-2.7558301	6.0154234
H	3.1793760	-3.3827868	5.5119231
H	4.6804048	-4.2888056	5.1504801
