31
-0.00211543 (energy)
C	1.8680629	0.8729693	-1.4265799
O	2.8282621	0.7351231	-2.1790329
O	1.6430247	2.0416767	-0.7398122
H	0.8532834	1.9197924	-0.1573800
N	0.0000000	0.0000000	0.0000000
C	-0.2670893	-0.3038723	2.3930908
H	-1.3199852	-0.0522911	2.3823709
H	0.1647643	-0.5328114	3.3589049
C	0.5107211	-0.3080054	1.2885987
C	1.9920810	-0.6062619	1.3765785
H	2.6021088	0.2520901	1.0710613
H	2.2568051	-0.8491007	2.4075033
H	2.2818203	-1.4565820	0.7475250
C	-1.5710584	-0.5730234	-1.7172911
C	-1.4633871	-0.1019472	-0.2548463
C	0.7842031	-0.1910501	-1.2426126
C	-0.2773125	-0.0535941	-2.3701265
H	-1.6003163	-1.6684365	-1.7564860
H	-2.4705731	-0.1970565	-2.2132493
H	-1.9087349	-0.8207310	0.4416659
H	-1.9558936	0.8663905	-0.0965746
H	1.2704625	-1.1721654	-1.2928790
H	-0.3874284	1.0020103	-2.6469145
H	0.0200421	-0.6053005	-3.2643824
C	5.5258062	4.1134226	-0.8407727
H	5.1485908	4.8810599	-0.1386157
O	6.4426779	4.3865959	-1.6235464
C	4.8507380	2.7731784	-0.7564736
H	3.7743035	2.8800188	-0.9460015
H	5.2840910	2.0806068	-1.4811298
H	4.9548385	2.3609905	0.2559875
