31
-0.00101817 (energy)
C	2.3535508	-0.8438244	0.1887426
O	3.4051651	-1.2706146	-0.2793674
O	2.0283107	-1.0043380	1.5141194
H	1.1233561	-0.6355182	1.6651281
N	0.0000000	0.0000000	0.0000000
C	-2.1710428	-1.0232305	0.3607370
H	-2.6142491	-0.1183346	0.7566276
H	-2.8089046	-1.8969947	0.3236414
C	-0.8845287	-1.1099674	-0.0420869
C	-0.3037895	-2.4208686	-0.5272720
H	0.5040959	-2.7771373	0.1228331
H	-1.0823200	-3.1861602	-0.5358912
H	0.1011392	-2.3440020	-1.5435524
C	0.4422698	2.2335026	-0.7493548
C	-0.5544968	1.3805981	0.0576526
C	1.3467481	-0.0210551	-0.6175653
C	1.7742727	1.4736722	-0.6144270
H	0.1350783	2.2731836	-1.8012012
H	0.5074828	3.2615785	-0.3815783
H	-1.5568932	1.3930089	-0.3841184
H	-0.6427314	1.7230782	1.0969853
H	1.3401800	-0.4146637	-1.6405957
H	2.2571322	1.7176249	0.3397069
H	2.4872789	1.6840696	-1.4143322
C	3.5036359	-3.3902774	4.8879765
H	3.2967986	-2.7104149	5.7362618
O	3.7508520	-4.5834227	5.0960645
C	3.4577101	-2.7564274	3.5259181
H	4.1868883	-1.9374446	3.4658081
H	3.6725249	-3.4966953	2.7523324
H	2.4685881	-2.3136762	3.3486549
