31
-0.00101752 (energy)
C	1.9843658	0.0925154	-2.4066085
O	2.0535177	-0.6748030	-3.3624380
O	2.9510670	0.1290413	-1.4307378
H	2.6743233	0.7746052	-0.7347244
N	0.7503347	1.6248499	-0.8522652
C	-0.1181457	1.3680109	1.3994750
H	0.1013909	2.3902358	1.6802914
H	-0.5578788	0.7410134	2.1644694
C	0.1594592	0.8522119	0.1821847
C	-0.1125684	-0.6035368	-0.1307393
H	0.8092519	-1.1548858	-0.3509763
H	-0.5855529	-1.0814709	0.7293306
H	-0.7820192	-0.7245753	-0.9909060
C	0.5594468	3.5498673	-2.2677294
C	0.6736308	3.1107093	-0.7958758
C	0.8792559	1.1382858	-2.2458919
C	1.2520553	2.4173535	-3.0471430
H	-0.4959442	3.6170773	-2.5574792
H	1.0186244	4.5256844	-2.4504564
H	-0.2009015	3.4117503	-0.2087797
H	1.5638658	3.5296529	-0.3087843
H	-0.0491150	0.7020617	-2.6324126
H	2.3399513	2.5565583	-3.0352266
H	0.9355972	2.3389435	-4.0893520
C	5.1415997	2.2507119	2.6152302
H	6.1830076	2.0077315	2.3306024
O	4.9162455	3.1517414	3.4309345
C	4.0795154	1.4219885	1.9486924
H	4.2337816	0.3582772	2.1740079
H	3.0873032	1.7286154	2.2864372
H	4.1471737	1.5278725	0.8578101
