31
-0.000689339 (energy)
C	4.3272035	-0.5388074	-1.4956434
O	5.0991670	-0.8968676	-2.3805360
O	4.2500466	-1.1911961	-0.2887445
H	3.5343752	-0.7743606	0.2514749
N	2.3142730	0.6905951	-0.6450289
C	0.0670167	-0.0041762	-0.0469567
H	-0.0160885	0.7063141	0.7656286
H	-0.7818675	-0.6565886	-0.2065228
C	1.1672879	-0.1277397	-0.8209362
C	1.2483063	-1.1842600	-1.9018272
H	2.0411626	-1.9149422	-1.7025157
H	0.3034109	-1.7285672	-1.9543418
H	1.4405854	-0.7514599	-2.8909755
C	3.1955447	2.9196177	-0.6229420
C	2.1892980	1.9868244	0.0767830
C	3.4451391	0.7067092	-1.6023392
C	4.2621493	1.9610389	-1.1826390
H	2.7019486	3.4553084	-1.4425275
H	3.6179563	3.6653193	0.0567269
H	1.1612589	2.3561533	-0.0059579
H	2.4154177	1.8631084	1.1439543
H	3.1192109	0.7941235	-2.6452638
H	4.9792724	1.6892330	-0.3984873
H	4.8251165	2.3680154	-2.0252132
C	0.3392577	3.4755938	2.5221196
H	-0.4138481	3.3559959	1.7201777
O	1.0401794	2.5158626	2.8621739
C	0.4247478	4.8481161	3.1287101
H	-0.5461460	5.1335473	3.5552558
H	1.1899464	4.8749525	3.9073805
H	0.6606111	5.5894223	2.3536959
