31
-0.000602812 (energy)
C	-1.5295439	-1.9936518	1.8503727
O	-1.7528901	-1.8928283	3.0533360
O	-0.6485964	-2.9211625	1.3485514
H	-0.5802318	-2.7961100	0.3700512
N	-1.5412262	-1.1389782	-0.5067996
C	0.1692760	-0.1906437	-1.9439504
H	-0.2278432	-0.6464625	-2.8420169
H	1.0669373	0.4029834	-2.0602201
C	-0.3743379	-0.3581607	-0.7186623
C	0.2638743	0.2532665	0.5101445
H	0.6068146	-0.5110784	1.2175422
H	1.1331266	0.8447709	0.2162424
H	-0.4246699	0.9152646	1.0490016
C	-3.8607878	-1.4489555	-1.0256613
C	-2.4525872	-1.4244769	-1.6490575
C	-2.2621945	-1.1728151	0.7872717
C	-3.6116058	-1.8606471	0.4365965
H	-4.3051890	-0.4473329	-1.0654339
H	-4.5366167	-2.1348993	-1.5444953
H	-2.3521047	-0.6380723	-2.4050900
H	-2.1957350	-2.3802076	-2.1243430
H	-2.4388586	-0.1739511	1.2027505
H	-3.5018246	-2.9493272	0.5125003
H	-4.4031722	-1.5548826	1.1239277
C	3.0716613	-3.6677893	1.0577653
H	2.9758339	-3.6635557	2.1602090
O	2.9535793	-4.7257836	0.4295005
C	3.3455358	-2.3308783	0.4278924
H	4.2762343	-1.9079979	0.8291647
H	3.4244073	-2.4283574	-0.6569365
H	2.5429178	-1.6243035	0.6776317
