31
-0.000477044 (energy)
C	0.2735706	0.3571570	-0.0809593
O	-0.8874720	0.7456571	-0.1716096
O	0.5835570	-0.9486056	0.2141027
H	1.5659923	-1.0316684	0.2895735
N	2.7369954	0.7181266	0.2158639
C	4.2420790	0.4692873	2.1035505
H	5.0687531	0.1268432	1.4941739
H	4.4185636	0.5235655	3.1701407
C	3.0277667	0.7867868	1.6040021
C	1.8909906	1.1986672	2.5146168
H	1.0560472	0.4890605	2.4749863
H	2.2433624	1.2364125	3.5472178
H	1.4939005	2.1887518	2.2601498
C	3.2877106	1.4973069	-1.9830586
C	3.8519656	0.7329482	-0.7707785
C	1.4834437	1.2477715	-0.3703487
C	1.7694642	1.2574136	-1.8984509
H	3.5069017	2.5672859	-1.8859901
H	3.7138323	1.1537886	-2.9300896
H	4.7213298	1.2379133	-0.3356574
H	4.1552923	-0.2890962	-1.0329015
H	1.2429994	2.2582286	-0.0200272
H	1.5134143	0.2813082	-2.3282118
H	1.1720546	2.0155726	-2.4091269
C	6.2934274	0.0680058	-3.4640525
H	5.5136189	-0.1542549	-4.2171008
O	6.0864417	-0.1698671	-2.2688180
C	7.5654462	0.6575290	-4.0058169
H	7.3516798	1.5968551	-4.5330903
H	8.2752464	0.8438587	-3.1970884
H	8.0140890	-0.0235702	-4.7410971
