31
-0.000412569 (energy)
C	3.6485792	-0.9092082	2.6670514
O	4.1314737	-1.0176194	3.7905413
O	4.0402802	0.0809697	1.7985543
H	3.4926318	0.0172239	0.9777058
N	1.8866127	-1.3456917	0.9373633
C	0.0483720	-0.0252140	0.0611393
H	0.1483269	-0.4168458	-0.9431672
H	-0.7242840	0.7170649	0.2151921
C	0.8479908	-0.3891539	1.0873296
C	0.7003208	0.2415183	2.4553832
H	1.5948931	0.8050491	2.7459278
H	-0.1407964	0.9374669	2.4496503
H	0.5124700	-0.5039912	3.2374503
C	2.4610897	-3.5977293	0.3508721
C	1.8495305	-2.2985069	-0.2061443
C	2.6397206	-1.9017845	2.0859059
C	3.3956195	-3.1151976	1.4749703
H	1.6711874	-4.2359560	0.7644459
H	2.9892377	-4.1737363	-0.4144565
H	0.8136940	-2.4399404	-0.5334877
H	2.4194678	-1.9074837	-1.0591172
H	1.9880332	-2.2298245	2.9039862
H	4.3533114	-2.7814129	1.0572963
H	3.6062303	-3.8734857	2.2320274
C	5.1691192	2.4654193	-2.3084308
H	5.3629009	3.3502912	-1.6727947
O	5.8591828	2.2612529	-3.3134882
C	4.0427191	1.5790800	-1.8559891
H	3.1068596	2.1518433	-1.8095566
H	3.9229190	0.7348103	-2.5382159
H	4.2381584	1.2085722	-0.8409321
