31
-0.000294138 (energy)
C	-0.4511988	-4.3831055	-1.3552707
O	-1.0154397	-5.4676792	-1.2434601
O	0.8720275	-4.2133239	-1.0260056
H	1.1072802	-3.2598175	-1.1411409
N	-0.4276602	-1.8862758	-1.5836394
C	-0.0304106	-0.0735695	-0.0193993
H	0.4678280	0.5483763	-0.7521609
H	-0.1057347	0.3276035	0.9831445
C	-0.5139847	-1.3053895	-0.2908482
C	-1.1443290	-2.1541370	0.7923961
H	-0.5760934	-3.0738156	0.9755419
H	-1.1736705	-1.5924118	1.7280559
H	-2.1720918	-2.4459724	0.5449345
C	-1.0049778	-1.6983367	-3.9024866
C	-0.2179864	-1.0118911	-2.7703702
C	-1.1226258	-3.1430051	-1.9486257
C	-1.0148443	-3.1838982	-3.4990153
H	-2.0295815	-1.3092014	-3.9353982
H	-0.5538201	-1.5343106	-4.8853419
H	-0.5974722	-0.0064193	-2.5579292
H	0.8505274	-0.9232020	-3.0063846
H	-2.1738056	-3.1541870	-1.6380486
H	-0.0730994	-3.6643270	-3.7911499
H	-1.8338977	-3.7569081	-3.9386795
C	2.8753329	0.2516157	2.4972255
H	1.8403224	0.4985145	2.1932896
O	3.8286641	0.6048159	1.7940744
C	3.0054726	-0.5161272	3.7828042
H	2.4566171	-1.4647936	3.7132585
H	4.0560835	-0.7152711	4.0044686
H	2.5550547	0.0507572	4.6083823
