31
-0.000192712 (energy)
C	4.3272035	0.5388075	1.4956434
O	5.0991670	0.8968677	2.3805359
O	4.2500466	1.1911962	0.2887445
H	3.5343752	0.7743606	-0.2514750
N	2.3142730	-0.6905951	0.6450290
C	0.0670167	0.0041762	0.0469567
H	-0.0160885	-0.7063142	-0.7656286
H	-0.7818675	0.6565886	0.2065228
C	1.1672879	0.1277397	0.8209362
C	1.2483063	1.1842601	1.9018271
H	2.0411626	1.9149423	1.7025156
H	0.3034109	1.7285673	1.9543417
H	1.4405854	0.7514600	2.8909754
C	3.1955447	-2.9196177	0.6229422
C	2.1892980	-1.9868244	-0.0767829
C	3.4451391	-0.7067091	1.6023393
C	4.2621493	-1.9610388	1.1826391
H	2.7019486	-3.4553083	1.4425277
H	3.6179563	-3.6653193	-0.0567267
H	1.1612589	-2.3561533	0.0059581
H	2.4154177	-1.8631085	-1.1439542
H	3.1192109	-0.7941234	2.6452639
H	4.9792724	-1.6892330	0.3984874
H	4.8251165	-2.3680153	2.0252133
C	2.1395271	5.9364216	1.7972997
H	2.7455129	5.6285360	2.6705525
O	1.7863713	7.1144225	1.6723722
C	1.8032072	4.8402938	0.8254608
H	1.2486548	4.0409736	1.3349760
H	1.2063509	5.2319353	-0.0009508
H	2.7236875	4.3873775	0.4338025
