31
0.000521241 (energy)
C	-0.3717109	-1.4584330	2.3414199
O	-1.3306144	-2.0872890	2.7798418
O	0.9239308	-1.8006470	2.6453468
H	1.5314395	-1.1373836	2.2345071
N	0.6967215	0.5634264	1.3131197
C	2.0096596	2.3947178	2.2148537
H	2.6399578	2.4723516	1.3381011
H	2.2286567	3.0741408	3.0285687
C	1.0161270	1.4882903	2.3420982
C	0.2098635	1.3859730	3.6190457
H	0.3443144	0.4160236	4.1123649
H	0.5314581	2.1596509	4.3189421
H	-0.8642965	1.5196192	3.4429194
C	-0.0032956	0.2646164	-0.9598427
C	1.1254429	0.8419436	-0.0852607
C	-0.5074993	-0.2990518	1.3524153
C	-0.6048520	-0.8579107	-0.0950639
H	-0.7574960	1.0362488	-1.1550024
H	0.3595439	-0.0993747	-1.9254048
H	1.2419221	1.9221098	-0.2259297
H	2.0937945	0.3705328	-0.2982331
H	-1.4185272	0.2528674	1.6112114
H	-0.0010776	-1.7696316	-0.1802652
H	-1.6347982	-1.1126178	-0.3535760
C	3.4205440	6.3711577	-0.5913848
H	3.8844832	6.7578231	-1.5186567
O	2.9834516	7.1567047	0.2570716
C	3.3746094	4.8739425	-0.4676325
H	4.3906512	4.4598376	-0.5147841
H	2.9026784	4.5824037	0.4730391
H	2.8171693	4.4424129	-1.3095684
