31
-0.00579012 (energy)
C	0.4515187	-1.2863255	-2.4267139
O	-0.2996067	-1.6127096	-3.3412923
O	1.7729727	-0.9787868	-2.6443111
H	2.2033288	-0.7961353	-1.7729865
N	1.1038174	-1.1439593	-0.0098765
C	2.6459869	-2.4045443	1.3769174
H	2.9384065	-1.5431689	1.9638766
H	3.1300838	-3.3415887	1.6204446
C	1.7558918	-2.3491644	0.3622388
C	1.4349938	-3.5759963	-0.4642189
H	1.7300613	-3.4526594	-1.5130115
H	1.9765725	-4.4371536	-0.0680422
H	0.3653748	-3.8176524	-0.4494178
C	-0.3313824	0.6478334	0.6795795
C	1.0284095	-0.0182328	0.9616660
C	-0.0143401	-1.1013868	-0.9812014
C	-0.6008888	0.3271622	-0.8017428
H	-1.1068474	0.1974449	1.3105520
H	-0.3206665	1.7230735	0.8800691
H	1.0897526	-0.4093390	1.9831293
H	1.8655216	0.6776130	0.8190745
H	-0.7819128	-1.8577989	-0.7806147
H	-0.0626670	1.0311961	-1.4480332
H	-1.6571379	0.3598241	-1.0769958
C	4.0090507	1.5433079	-1.4406451
H	3.2292421	1.5920089	-2.2242966
O	3.8020650	0.9109862	-0.3988494
C	5.2810695	2.2825728	-1.7481084
H	5.0673030	3.3455887	-1.9223148
H	5.9908697	2.1810640	-0.9244237
H	5.7297122	1.8940296	-2.6719954
