31
-0.00564711 (energy)
C	2.2187070	0.0870003	-2.1926699
O	2.4660695	0.9908358	-2.9858046
O	1.6734914	-1.1077212	-2.5970828
H	1.5090146	-1.6672836	-1.7985768
N	1.8018148	-0.8193694	0.1076691
C	-0.2103076	-1.4386109	1.3153372
H	0.2630559	-2.2663931	1.8278814
H	-1.2606866	-1.2793953	1.5228508
C	0.4297175	-0.6451819	0.4289134
C	-0.3029689	0.4576815	-0.3045628
H	-0.3257644	0.2854128	-1.3871738
H	-1.3364870	0.5062220	0.0437755
H	0.1530774	1.4409009	-0.1372224
C	4.0550816	-0.8720555	0.9235624
C	2.6865368	-1.5687338	1.0417791
C	2.5675569	0.1550278	-0.7045808
C	4.0464401	-0.2767305	-0.4960478
H	4.1329494	-0.0711390	1.6684056
H	4.8903813	-1.5597465	1.0842109
H	2.2823323	-1.5094827	2.0582546
H	2.7388600	-2.6295551	0.7639106
H	2.4218012	1.1907699	-0.3766238
H	4.3144812	-1.0439807	-1.2326066
H	4.7281017	0.5662835	-0.6270372
C	2.1012327	3.9256922	0.5458741
H	2.3101579	3.9315674	-0.5408175
O	2.0915931	2.8583494	1.1693310
C	1.8430168	5.2723402	1.1614565
H	0.9850637	5.7527849	0.6724408
H	1.6472605	5.1724926	2.2311698
H	2.7072246	5.9313198	1.0042811
