31
-0.00527472 (energy)
C	-1.1501066	2.4497762	-0.6506105
O	-2.2011303	2.9855134	-0.3107507
O	-0.0365509	3.1803481	-0.9888817
H	0.6748360	2.5576609	-1.2786468
N	0.2055907	0.5147162	-1.4899507
C	1.1309376	-0.0548219	-3.6601853
H	2.0230913	-0.5053026	-3.2441000
H	1.0584206	-0.0356420	-4.7400376
C	0.1538022	0.4979760	-2.9088333
C	-1.0405794	1.1704070	-3.5510277
H	-1.0829619	2.2409659	-3.3178967
H	-0.9777580	1.0711902	-4.6364148
H	-1.9897208	0.7254937	-3.2287172
C	0.3251887	-0.7831993	0.5217105
C	1.0867312	-0.4490412	-0.7746853
C	-0.9394466	0.9344048	-0.6483381
C	-0.5358611	0.4668025	0.7783587
H	-0.3167794	-1.6579931	0.3638022
H	0.9963879	-1.0078186	1.3556709
H	1.2442975	-1.3358562	-1.3982607
H	2.0695250	-0.0036712	-0.5720716
H	-1.8840463	0.4676428	-0.9507067
H	0.0606418	1.2464952	1.2675429
H	-1.4152777	0.2793424	1.3980187
C	3.5159769	2.3505384	-1.6474339
H	3.6086056	1.6245095	-2.4774249
O	3.2700704	1.9548230	-0.5024660
C	3.7080746	3.7924105	-2.0258270
H	2.9746707	4.0832240	-2.7897596
H	3.6000037	4.4352412	-1.1496613
H	4.7020724	3.9371420	-2.4694873
