31
-0.00506933 (energy)
C	-0.1415814	0.2849538	0.3281958
O	1.0749141	0.1612345	0.4377489
O	-0.8551616	-0.3693540	-0.6469216
H	-1.8018441	-0.0898887	-0.5880495
N	-2.3172315	1.4606705	0.7418398
C	-3.7032507	2.9249120	-0.6092733
H	-4.6316052	2.5388842	-0.2078530
H	-3.7874638	3.6918918	-1.3684555
C	-2.4848976	2.4755503	-0.2369845
C	-1.2238638	3.0102465	-0.8812037
H	-0.6806401	2.2307309	-1.4284753
H	-1.4809441	3.7959697	-1.5942284
H	-0.5323499	3.4388933	-0.1458317
C	-2.7028844	0.7871043	3.0097132
C	-3.4185664	1.1762611	1.7025762
C	-0.9956969	1.0963668	1.3043253
C	-1.3519763	0.2195897	2.5377448
H	-2.5426969	1.6781603	3.6283255
H	-3.2752583	0.0676882	3.6024027
H	-4.0395748	2.0703626	1.8252357
H	-4.0634172	0.3696304	1.3300113
H	-0.4086009	1.9692358	1.6125138
H	-1.4656680	-0.8261341	2.2269816
H	-0.5655583	0.2608015	3.2942774
C	1.5064550	-2.6663780	-0.3207490
H	1.0008944	-2.4066669	-1.2702444
O	0.9194289	-3.3469284	0.5279345
C	2.9056814	-2.1390550	-0.1685186
H	2.9064547	-1.0433893	-0.2431040
H	3.3258315	-2.4418329	0.7929262
H	3.5406208	-2.5125405	-0.9828735
