31
-0.00459925 (energy)
C	-1.8680628	1.5857213	0.5316897
O	-2.8282620	1.9637926	1.1967079
O	-1.6430247	2.0395572	-0.7456357
H	-0.8532833	1.5718081	-1.1134588
N	0.0000000	0.0000000	0.0000000
C	0.2670891	-1.7710289	-1.6378884
H	1.3199851	-1.5714160	-1.7913899
H	-0.1647645	-2.5672199	-2.2305857
C	-0.5107212	-1.0642412	-0.7891417
C	-1.9920811	-1.3492711	-0.6648225
H	-2.6021089	-0.4953527	-0.9825208
H	-2.2568052	-2.1979622	-1.2984629
H	-2.2818203	-1.5963062	0.3636357
C	1.5710585	0.6648921	1.6838536
C	1.4633871	0.0857159	0.2607539
C	-0.7842030	0.6523833	1.0747011
C	0.2773126	1.4824326	1.8500717
H	1.6003164	-0.1490489	2.4179967
H	2.4705732	1.2716952	1.8221126
H	1.9087349	-0.9126139	0.1892200
H	1.9558936	0.7257704	-0.4829248
H	-1.2704625	-0.0668840	1.7438562
H	0.3874286	2.4689884	1.3835741
H	-0.0200419	1.6346177	2.8897415
C	2.7325891	1.9489886	-3.5804133
H	3.8374283	1.9978787	-3.5413875
O	2.1054238	1.3773000	-2.6816097
C	2.0982200	2.6110590	-4.7713443
H	2.4723434	2.1578704	-5.6990828
H	1.0112565	2.5149979	-4.7282248
H	2.3738825	3.6734866	-4.8040724
