31
-0.00445811 (energy)
C	1.9843658	2.1304418	-1.1231836
O	2.0535177	2.5745552	-2.2656156
O	2.9510670	1.3035759	-0.6036158
H	2.6743233	1.0235926	0.3034656
N	0.7503347	1.5505083	0.9810286
C	-0.1181457	-0.5279754	1.8844697
H	0.1013909	-0.2600571	2.9101506
H	-0.5578788	-1.5039788	1.7239712
C	0.1594592	0.2683294	0.8291295
C	-0.1125684	-0.1885449	-0.5880478
H	0.8092519	-0.2734885	-1.1756486
H	-0.5855529	-1.1723543	-0.5719160
H	-0.7820192	0.4958621	-1.1229536
C	0.5594468	3.7388450	1.9404105
C	0.6736308	2.2446034	2.2960154
C	0.8792559	2.5141423	-0.1371616
C	1.2520553	3.8475800	0.5699180
H	-0.4959442	4.0233806	1.8537412
H	1.0186244	4.3849997	2.6941294
H	-0.2009015	1.8866837	2.8502726
H	1.5638658	2.0322415	2.9023769
H	-0.0491150	2.6307671	-0.7082031
H	2.3399513	3.9068625	0.6964311
H	0.9355972	4.7109545	-0.0190915
C	5.5263741	1.0455872	0.9809580
H	5.7060451	1.3037628	-0.0800069
O	4.6107121	0.2725117	1.2841567
C	6.4555985	1.6922937	1.9695889
H	6.3900991	2.7856450	1.8899673
H	6.2069861	1.3827771	2.9869227
H	7.4953046	1.4199183	1.7445642
