31
-0.00421069 (energy)
C	0.3717110	2.7569456	-0.0923305
O	1.3306145	3.4510580	-0.4177250
O	-0.9239306	3.1912610	-0.2367331
H	-1.5314394	2.5038318	0.1322502
N	-0.6967214	0.8554820	1.1445013
C	-2.0096595	0.7207612	3.1813132
H	-2.6399577	-0.0773457	2.8101699
H	-2.2286565	1.0857477	4.1765683
C	-1.0161268	1.2841718	2.4599462
C	-0.2098633	2.4411995	3.0098104
H	-0.3443142	3.3534010	2.4164690
H	-0.5314579	2.6604888	4.0297832
H	0.8642967	2.2218465	3.0374882
C	0.0032955	-0.9635564	-0.2507567
C	-1.1254429	-0.4948096	0.6865143
C	0.5074994	1.3207520	0.4172209
C	0.6048520	0.3466274	-0.7905045
H	0.7574959	-1.5183858	0.3199168
H	-0.3595440	-1.6177623	-1.0487632
H	-1.2419221	-1.1567155	1.5516313
H	-2.0937945	-0.4435437	0.1717744
H	1.4185273	1.2689164	1.0245951
H	0.0010776	0.7287013	-1.6226786
H	1.6347982	0.2501029	-1.1403433
C	3.0341764	-2.3996332	2.7347230
H	3.9202905	-1.8209598	3.0580211
O	2.5243675	-2.1863273	1.6290071
C	2.5340187	-3.4193150	3.7191870
H	2.2701676	-2.9313678	4.6669934
H	1.6617403	-3.9408217	3.3195146
H	3.3260919	-4.1451843	3.9462270
