31
-0.00412804 (energy)
C	-0.3774133	0.3324040	2.4564062
O	-0.6887747	-0.0544830	3.5791449
O	-0.3629114	1.6655181	2.1235915
H	-0.1365326	1.7501877	1.1647599
N	0.0000000	0.0000000	0.0000000
C	-1.3076844	0.5329385	-1.9739546
H	-0.4393351	0.7656810	-2.5771115
H	-2.2722086	0.6481340	-2.4515848
C	-1.2372919	0.1512962	-0.6800060
C	-2.4907918	-0.0988822	0.1307180
H	-2.5848553	0.6032118	0.9676521
H	-3.3696715	0.0255209	-0.5048525
H	-2.5197220	-1.1130707	0.5469946
C	2.1148064	-1.1258140	0.0761952
C	1.2525398	-0.1829616	-0.7839074
C	0.1078303	-0.6045267	1.3485106
C	1.6322616	-0.8609928	1.5138320
H	1.9200714	-2.1685711	-0.2013981
H	3.1860996	-0.9421484	-0.0464838
H	1.0149647	-0.6201764	-1.7598764
H	1.7471074	0.7811102	-0.9607089
H	-0.4499986	-1.5436657	1.4402015
H	2.1158724	0.0362838	1.9188667
H	1.8233352	-1.6852807	2.2041462
C	4.6213207	1.7239499	2.9040178
H	4.3946273	2.6760925	2.3876677
O	4.2777133	0.6486932	2.4002628
C	5.3507192	1.8557762	4.2115643
H	4.7653581	2.4682019	4.9103733
H	5.5321179	0.8717516	4.6490194
H	6.3067479	2.3742855	4.0600040
