31
-0.00626602 (energy)
C	-0.4727658	0.0374775	-0.1291351
O	-0.2777137	-0.9848098	0.5351611
O	0.5449318	0.9175439	-0.4364127
H	1.3881971	0.6213195	-0.0296188
C	-2.2400974	3.5049127	1.4966219
H	-1.9203065	4.3106025	0.8474677
H	-2.4679744	3.7671928	2.5220948
C	-2.3626807	2.2248896	1.0780854
C	-2.7766592	1.1186337	2.0271694
H	-2.0144115	0.3362294	2.1200901
H	-2.9549218	1.5300442	3.0229765
H	-3.7010013	0.6337722	1.6871235
C	-2.3338922	1.9787311	-2.5950688
C	-2.0235339	2.8189203	-1.3459625
N	-2.1853032	1.8458133	-0.2598424
C	-1.8158268	0.4889561	-0.6901539
C	-1.7728128	0.5771999	-2.2518727
H	-3.4180330	1.9300411	-2.7451588
H	-1.8830665	2.3901326	-3.5030895
H	-2.7280034	3.6443203	-1.2027226
H	-1.0051429	3.2374357	-1.3790154
H	-2.5458554	-0.2479658	-0.3434107
H	-0.7404396	0.4878614	-2.6013669
H	-2.3524965	-0.2304901	-2.7065084
C	2.6793328	-1.6577988	-0.1187195
H	2.7262985	-1.6445181	-1.2242514
O	3.1884843	-0.7399797	0.5342622
C	1.9725329	-2.8395318	0.4837911
H	2.4625863	-3.7716673	0.1723142
H	1.9735708	-2.7706957	1.5736705
H	0.9382899	-2.8877009	0.1179570
