31
-0.00170948 (energy)
C	3.1416473	0.3465543	1.0772622
O	3.8573340	1.2171083	0.5729465
O	3.3937944	-0.9995267	0.9065795
H	4.1724528	-1.1306572	0.3227795
C	-0.6161707	-0.7149050	-0.5170283
H	-0.8042669	-1.7141302	-0.1442387
H	-1.0859189	-0.4489885	-1.4556115
C	0.1587480	0.1816704	0.1343641
C	0.4288242	1.5578990	-0.4392166
H	1.4951526	1.7370161	-0.6199737
H	-0.0944411	1.6736519	-1.3907745
H	0.0776135	2.3439712	0.2418646
C	0.8008820	-0.8384473	3.6129425
C	0.3441320	-1.2439770	2.2024703
N	0.7039100	-0.0685529	1.4014076
C	1.9034638	0.5987733	1.9291278
C	2.0770105	0.0024463	3.3654002
H	0.0263506	-0.2265782	4.0883121
H	0.9962479	-1.7006729	4.2574546
H	-0.7354399	-1.4122274	2.1369242
H	0.8562010	-2.1550507	1.8544793
H	1.7739292	1.6845681	1.9514239
H	2.9631260	-0.6375975	3.3980380
H	2.2080001	0.7955963	4.1062408
C	-2.0083551	2.4541362	-3.4067352
H	-1.5027944	3.4062789	-3.1569039
O	-1.4213291	1.3788795	-3.2417029
C	-3.4075815	2.5859624	-3.9395255
H	-3.4083547	3.1983880	-4.8511071
H	-3.8277317	1.6019379	-4.1580345
H	-4.0425209	3.1044718	-3.2089001
