31
-0.00152155 (energy)
C	1.8140702	0.1965976	1.7973236
O	1.6008596	0.5015586	2.9745858
O	2.9499861	0.6049209	1.1282855
H	3.5036491	1.1719593	1.7081573
C	-0.1116867	2.1066556	-1.4326598
H	0.5354152	1.9341024	-2.2837108
H	-0.7271445	2.9969849	-1.4616198
C	-0.1746439	1.2698567	-0.3722530
C	-1.0652367	1.5661223	0.8172898
H	-0.5003391	1.6684410	1.7512243
H	-1.6081424	2.4992468	0.6523655
H	-1.8004356	0.7648806	0.9677038
C	1.3935287	-1.9803861	-1.1004293
C	1.2255826	-0.5022756	-1.4870687
N	0.5167924	0.0511907	-0.3277350
C	0.8930935	-0.6381489	0.9156276
C	1.6072931	-1.9439458	0.4324960
H	0.4784675	-2.5306501	-1.3456465
H	2.2283576	-2.4602329	-1.6198564
H	0.6162286	-0.3642954	-2.3858063
H	2.1976997	-0.0110666	-1.6515983
H	0.0135074	-0.8571361	1.5276731
H	2.6748739	-1.8915344	0.6636805
H	1.1975297	-2.8240683	0.9350579
C	3.5980776	4.5972895	-2.4287476
H	3.1341384	5.2777819	-1.6896446
O	4.0351701	5.0452728	-3.4947088
C	3.6440122	3.1480417	-2.0329587
H	2.6279705	2.7750373	-1.8470184
H	4.1159433	2.5523561	-2.8171886
H	4.2014523	3.0304958	-1.0942059
