31
-0.00148862 (energy)
C	2.5037601	2.0630442	-0.7909330
O	2.4248533	3.2534614	-0.4729915
O	2.4820180	1.6530218	-2.1085269
H	2.3657617	2.4242431	-2.7052082
C	-0.7558451	-0.5957007	-0.4815732
H	-0.5270479	-1.3978081	-1.1722821
H	-1.8035560	-0.4086351	-0.2825216
C	0.1957367	0.1517149	0.1221823
C	-0.1659605	1.2907541	1.0536895
H	0.2106634	2.2583290	0.7018865
H	-1.2516665	1.3682182	1.1426256
H	0.2482677	1.1254654	2.0567971
C	3.5293410	-1.3830123	-0.1696732
C	2.0794612	-1.3175872	-0.6757116
N	1.5656096	-0.1131713	-0.0138187
C	2.6224056	0.8916476	0.1766107
C	3.9530273	0.1017198	-0.0559034
H	3.5537573	-1.8638173	0.8144453
H	4.1851877	-1.9466827	-0.8398503
H	1.4829106	-2.1830090	-0.3703389
H	2.0341265	-1.2383879	-1.7734548
H	2.5769474	1.3277396	1.1786007
H	4.4243502	0.4321519	-0.9857375
H	4.6601089	0.2757437	0.7594746
C	7.8188859	-0.7358334	-0.0425776
H	7.6178223	-1.3326146	-0.9525273
O	6.8797290	-0.2950407	0.6295075
C	9.2707565	-0.5226223	0.2825234
H	9.7738779	-0.0153126	-0.5514746
H	9.3754297	0.0733897	1.1915833
H	9.7739444	-1.4895917	0.4151339
