31
-0.00588592 (energy)
C	-0.3240216	-0.0060927	0.3695414
O	-0.8958816	-0.1171534	-0.7190576
O	1.0469796	0.1173418	0.4683569
H	1.4600357	0.0695535	-0.4212652
C	0.3356220	-3.2856480	2.9384013
H	1.1630735	-2.9834943	3.5683461
H	0.2126251	-4.3485522	2.7728119
C	-0.5218486	-2.4051753	2.3743352
C	-1.6451949	-2.8653522	1.4675434
H	-1.5669303	-2.4499904	0.4560290
H	-1.6324710	-3.9540588	1.3825493
H	-2.6222545	-2.5651293	1.8679818
C	-0.2456256	0.9369181	3.8934129
C	0.3845571	-0.4478509	3.6748009
N	-0.4765953	-1.0292434	2.6388653
C	-1.0044497	0.0021302	1.7331168
C	-0.7413214	1.3486065	2.4856908
H	-1.0901945	0.8511491	4.5859488
H	0.4615055	1.6617347	4.3076629
H	0.3514104	-1.0764226	4.5702779
H	1.4333088	-0.3711555	3.3467679
H	-2.0688752	-0.1530801	1.5352915
H	0.0319793	1.9207262	1.9654916
H	-1.6459246	1.9614059	2.5211847
C	3.9209032	-0.8686662	-1.2565229
H	3.1410947	-1.6488691	-1.1684043
O	3.7139175	0.2671038	-0.8147135
C	5.1929220	-1.2998304	-1.9311663
H	4.9791556	-1.6559810	-2.9477820
H	5.9027222	-0.4710325	-1.9742309
H	5.6415647	-2.1422116	-1.3880947
