31
-0.00143798 (energy)
C	-0.2877661	0.3530384	0.1847770
O	0.7815360	0.8219915	-0.2165733
O	-0.5757079	-0.9939725	0.0993608
H	0.1597404	-1.4741044	-0.3398610
C	-3.8842108	0.7004879	-1.9911180
H	-4.5090850	-0.1051727	-1.6260883
H	-4.0676251	1.0386093	-3.0032179
C	-2.9167520	1.2797896	-1.2447322
C	-2.0375234	2.3794046	-1.8048616
H	-0.9751379	2.1089566	-1.8075106
H	-2.3277805	2.5997819	-2.8343530
H	-2.1373087	3.3010201	-1.2168158
C	-3.2447998	0.4249627	2.3210973
C	-3.6183463	0.0985901	0.8662946
N	-2.7059637	0.9577036	0.1032446
C	-1.4287165	1.1492644	0.8065840
C	-1.7173271	0.6718441	2.2685609
H	-3.7679151	1.3332346	2.6399255
H	-3.5068100	-0.3795462	3.0147201
H	-4.6529977	0.3607866	0.6237467
H	-3.4710601	-0.9687701	0.6373476
H	-1.1130887	2.1959573	0.7743402
H	-1.1775048	-0.2576566	2.4699119
H	-1.3866854	1.4169299	2.9969929
C	2.4019945	-0.1531524	-2.8203367
H	1.5496271	-0.2143162	-2.1172637
O	2.1983564	0.0134165	-4.0281440
C	3.7636908	-0.2853357	-2.1979311
H	3.8478884	-1.2471612	-1.6746250
H	4.5414763	-0.2133488	-2.9611115
H	3.9121974	0.4994573	-1.4443669
