31
-0.00138122 (energy)
C	0.6831997	-1.7197594	1.4403012
O	1.4220984	-2.6839095	1.6613203
O	-0.3182232	-1.3479502	2.3141175
H	-0.3562795	-1.9676738	3.0749203
C	-2.5208273	-1.8889170	-1.2974443
H	-3.1908569	-1.0952822	-0.9908379
H	-2.9666244	-2.7308586	-1.8119467
C	-1.1884975	-1.8592792	-1.0679282
C	-0.2893764	-3.0075698	-1.4789646
H	0.2262880	-3.4647462	-0.6263849
H	-0.8795584	-3.7857243	-1.9676656
H	0.4821760	-2.6705708	-2.1834281
C	-0.0411402	1.5042843	-0.1069413
C	-1.2188536	0.5308477	-0.2740310
N	-0.5421892	-0.7506134	-0.5036960
C	0.7409261	-0.8202562	0.2115013
C	1.0407411	0.6623016	0.6124204
H	0.3152866	1.8225566	-1.0928022
H	-0.3105882	2.3989073	0.4623074
H	-1.8486972	0.7693540	-1.1368705
H	-1.8581909	0.5069299	0.6226538
H	1.5261782	-1.2370761	-0.4255756
H	0.9520887	0.7799857	1.6960316
H	2.0559617	0.9486496	0.3253282
C	5.4888580	-2.1321708	2.2791443
H	5.3091870	-1.8739950	3.3401092
O	6.4045201	-2.9052464	1.9759459
C	4.5596337	-1.4854645	1.2905133
H	4.6251331	-0.3921132	1.3701346
H	4.8082462	-1.7949813	0.2731795
H	3.5199276	-1.7578399	1.5155379
