31
-0.00121468 (energy)
C	-2.3053146	0.9913349	0.5124972
O	-2.5190005	1.8583397	1.3651679
O	-3.2054665	-0.0230002	0.2565762
H	-3.9784376	0.0453026	0.8583876
C	0.3189672	-2.2452368	1.1662579
H	0.0045976	-3.0049660	0.4614270
H	0.8024671	-2.5909247	2.0712667
C	0.1352063	-0.9221901	0.9554546
C	0.5551217	0.1083855	1.9838154
H	-0.2878381	0.7064696	2.3492278
H	1.0091370	-0.3880134	2.8441212
H	1.2913681	0.8060435	1.5638810
C	-0.7241564	-0.2028271	-2.5513241
C	-0.6149813	-1.2453126	-1.4271305
N	-0.3862822	-0.4117774	-0.2415171
C	-1.0588611	0.8907951	-0.3584983
C	-1.4219645	1.0031868	-1.8764334
H	0.2788998	0.0773414	-2.8913869
H	-1.2855669	-0.5709917	-3.4151931
H	0.2303322	-1.9277592	-1.5605166
H	-1.5330543	-1.8476395	-1.3393118
H	-0.4034115	1.7043178	-0.0347803
H	-2.5055945	0.9333728	-2.0060248
H	-1.0954783	1.9619264	-2.2879127
C	4.2773840	-3.7824826	3.2039714
H	5.3123946	-4.0389274	3.4998971
O	3.3240530	-4.4136186	3.6739068
C	4.1472443	-2.6497519	2.2246538
H	4.6960996	-2.8829754	1.3024762
H	3.0966333	-2.4660361	1.9900438
H	4.5976622	-1.7382777	2.6395656
