31
-0.00119497 (energy)
C	0.5153549	-3.1709592	-0.9110259
O	-0.1055767	-3.6276522	-1.8755370
O	0.3034803	-3.6200591	0.3766321
H	-0.4066630	-4.2981731	0.3902157
C	-0.4021766	0.5618660	0.8250056
H	-0.0023880	0.5070260	1.8299758
H	-1.2449297	1.2241327	0.6717624
C	0.1047565	-0.1453921	-0.2101095
C	-0.5070084	-0.0702569	-1.5943203
H	-0.8701853	-1.0424169	-1.9476186
H	-1.3532459	0.6200563	-1.5901381
H	0.2247128	0.2903918	-2.3289268
C	3.4189821	-1.5401768	0.5798073
C	2.1092519	-0.9264140	1.0998157
N	1.2578844	-0.9342434	-0.0951217
C	1.5692871	-2.0719917	-0.9733582
C	2.9536032	-2.5894735	-0.4590778
H	4.0216257	-0.7640434	0.0953524
H	4.0197777	-1.9895936	1.3760898
H	2.2321672	0.1025975	1.4521041
H	1.6776277	-1.5217385	1.9199724
H	1.6137380	-1.7616297	-2.0211780
H	2.8318728	-3.5655931	0.0187235
H	3.6604427	-2.7054754	-1.2849177
C	1.8467552	-2.8196444	5.1920449
H	2.3265050	-2.2452204	6.0071891
O	1.9090010	-2.4118977	4.0267638
C	1.1467717	-4.0805358	5.6154290
H	0.3630589	-3.8491723	6.3491265
H	0.7045044	-4.5808549	4.7513357
H	1.8551675	-4.7573929	6.1112649
