31
-0.001096 (energy)
C	-3.8624635	1.5260002	0.7364463
O	-4.5661240	2.0150023	-0.1524547
O	-3.1842485	2.3087145	1.6486017
H	-3.3255867	3.2609292	1.4545985
C	0.0000000	-0.0000000	0.0000000
H	0.4969893	0.0249732	0.9618635
H	0.6318703	0.0699158	-0.8764502
C	-1.3405666	-0.1156062	-0.1348148
C	-2.0019156	-0.1085332	-1.4980860
H	-2.7096039	0.7200000	-1.6185944
H	-1.2439897	-0.0155375	-2.2788344
H	-2.5579613	-1.0392270	-1.6705748
C	-2.9434650	-1.1812736	3.0034258
C	-1.7041882	-0.5911517	2.3117210
N	-2.1964734	-0.3167578	0.9570525
C	-3.6236915	0.0378777	0.9619843
C	-4.1270400	-0.4053284	2.3757775
H	-3.0204899	-2.2491272	2.7710150
H	-2.9117994	-1.0715390	4.0915215
H	-0.8695887	-1.2973938	2.2593212
H	-1.3513252	0.3217535	2.8171513
H	-4.1608679	-0.4746066	0.1588479
H	-4.3637086	0.4752763	2.9794706
H	-5.0329675	-1.0121288	2.2971734
C	3.0771181	-1.9931064	-0.8312201
H	2.5444695	-1.1333910	-1.2803946
O	4.2534868	-1.8736583	-0.4708023
C	2.2740036	-3.2574966	-0.7071118
H	1.9216697	-3.5796107	-1.6961266
H	2.8752651	-4.0495366	-0.2557428
H	1.3800260	-3.0784266	-0.0951058
