31
-0.00106878 (energy)
C	1.7141907	1.2985796	2.5545611
O	2.5866064	2.1418419	2.3260754
O	2.0170593	0.0443916	3.0443852
H	2.9888057	-0.0606027	3.1393156
C	-0.1396747	-0.9427166	-0.4998502
H	-0.5233893	-1.8253616	-0.0033581
H	0.1037869	-1.0420205	-1.5501732
C	0.0352405	0.2408183	0.1304740
C	0.6108214	1.4431457	-0.5899817
H	1.5438647	1.7985303	-0.1372741
H	0.8216265	1.1875692	-1.6306112
H	-0.0960123	2.2830447	-0.5806998
C	-1.7088434	0.3347886	3.3712803
C	-1.1521001	-0.5162468	2.2187689
N	-0.3615810	0.4575058	1.4574223
C	0.2181184	1.4865689	2.3336185
C	-0.5721551	1.3406656	3.6762959
H	-2.6077306	0.8640276	3.0363671
H	-1.9734688	-0.2636240	4.2481339
H	-1.9369680	-0.9288637	1.5770448
H	-0.5361482	-1.3509742	2.5891757
H	0.1045575	2.4842462	1.9000627
H	0.0856695	0.9425815	4.4539318
H	-0.9480145	2.3088826	4.0174347
C	5.5067167	-2.6366342	1.5748334
H	5.0163778	-3.6236963	1.6741255
O	6.6518282	-2.4670925	2.0084087
C	4.6884881	-1.5740771	0.8961932
H	3.7503816	-1.4126037	1.4438513
H	5.2475912	-0.6375889	0.8416923
H	4.4126951	-1.8987661	-0.1158980
