31
-0.00094674 (energy)
C	2.9825485	-2.0472586	-2.1685920
O	2.7558347	-3.0874110	-2.7939637
O	3.6175895	-2.0520048	-0.9432981
H	3.8124235	-2.9725287	-0.6622253
C	0.0000000	0.0000000	0.0000000
H	0.5416646	0.5903216	0.7286448
H	-1.0084794	-0.2930177	0.2634831
C	0.5263290	-0.3667452	-1.1904346
C	-0.2503285	-1.2256880	-2.1676558
H	0.2508562	-2.1765531	-2.3832517
H	-1.2371175	-1.4542614	-1.7594039
H	-0.3883465	-0.7061550	-3.1248217
C	3.5660222	1.5500743	-1.9901546
C	2.5582691	1.0971062	-0.9216229
N	1.7832606	0.0719721	-1.6295957
C	2.6059255	-0.6407985	-2.6184954
C	3.8768645	0.2571254	-2.7829619
H	3.0991029	2.2956974	-2.6430647
H	4.4681823	1.9935348	-1.5583600
H	1.8891389	1.9013718	-0.5999060
H	3.0635565	0.6925662	-0.0303318
H	2.0691262	-0.7645335	-3.5633567
H	4.7473164	-0.2480284	-2.3551124
H	4.0861272	0.4512242	-3.8382462
C	2.6007327	-4.1047551	1.7882331
H	2.8534990	-4.4820064	0.7790881
O	2.4468257	-4.8962747	2.7251544
C	2.4688158	-2.6121484	1.9057111
H	1.6904492	-2.2469588	1.2224623
H	2.2193714	-2.3299177	2.9307477
H	3.4066798	-2.1255133	1.6066947
