31
-0.000788091 (energy)
C	-2.9825483	-2.9016852	-0.6886815
O	-2.7558345	-3.9633494	-1.2767940
O	-3.6175894	-1.8429228	-1.3054390
H	-3.8124234	-2.0597688	-2.2431724
C	0.0000000	0.0000000	0.0000000
H	-0.5416647	0.9261857	0.1469110
H	1.0084794	0.0816742	-0.3855023
C	-0.5263289	-1.2143192	0.2776068
C	0.2503286	-2.4900890	0.0223512
H	-0.2508561	-3.1522332	-0.6933240
H	1.2371176	-2.2508192	-0.3797251
H	0.3883466	-3.0592524	0.9508631
C	-3.5660222	-0.9484872	2.3374812
C	-2.5582691	-0.2495957	1.4109333
N	-1.7832606	-1.3752851	0.8771277
C	-2.6059254	-2.5880828	0.7543002
C	-3.8768644	-2.2815530	1.6141585
H	-3.0991028	-1.1411123	3.3096648
H	-4.4681823	-0.3528119	2.5056318
H	-1.8891389	0.4311522	1.9465892
H	-3.0635565	0.3200149	0.6149458
H	-2.0691260	-3.4682241	1.1195734
H	-4.7473162	-2.1636015	0.9627577
H	-4.0861270	-3.0984065	2.3098951
C	3.8583116	1.4719442	2.6036038
H	3.2543287	1.0178903	3.4120731
O	4.7210065	2.3151413	2.8733972
C	3.5455153	0.9898311	1.2147902
H	2.4914811	1.1847453	0.9759027
H	4.1857937	1.4881893	0.4838597
H	3.6891253	-0.0969678	1.1510900
