31
-0.00396519 (energy)
C	0.3240216	-0.3628692	0.0701703
O	0.8958816	0.7284770	-0.0094896
O	-1.0469796	-0.4816178	-0.0342297
H	-1.4600358	0.4027873	-0.1416488
C	-0.3356218	-2.3232133	3.7459799
H	-1.1630733	-2.9960563	3.5578053
H	-0.2126249	-1.9755681	4.7639818
C	0.5218488	-1.9206092	2.7809344
C	1.6451950	-0.9476846	3.0766574
H	1.5669304	-0.0236643	2.4919581
H	1.6324711	-0.6749298	4.1340649
H	2.6222547	-1.3941726	2.8505309
C	0.2456258	-3.9969573	-0.2465998
C	-0.3845569	-3.5412038	1.0791698
N	0.4765954	-2.4200486	1.4718412
C	1.0044498	-1.7071566	0.2988549
C	0.7413215	-2.6821107	-0.8964823
H	1.0901948	-4.6640784	-0.0418763
H	-0.4615053	-4.5307771	-0.8884710
H	-0.3514101	-4.3139261	1.8536901
H	-1.4333086	-3.2314725	0.9466772
H	2.0688752	-1.4853847	0.4173551
H	-0.0319792	-2.2691621	-1.5502419
H	1.6459247	-2.8234768	-1.4938085
C	-0.3966961	4.0218051	-1.8545788
H	-0.5644790	4.6749105	-0.9771479
O	-1.2948437	3.8615754	-2.6886469
C	0.9600589	3.3797067	-1.9320618
H	1.1399522	2.7680982	-1.0378469
H	1.0373401	2.7559096	-2.8250800
H	1.7419930	4.1504333	-1.9513716
