31
-0.000672771 (energy)
C	3.1416473	-1.1210747	0.1542247
O	3.8573340	-0.7755907	1.0991266
O	3.3937944	-0.7192405	-1.1417675
H	4.1724528	-0.1215392	-1.1695301
C	-0.6161707	0.6333154	-0.6142630
H	-0.8042669	0.4397029	-1.6630420
H	-1.0859189	1.5114635	-0.1894032
C	0.1587480	-0.1638695	0.1555784
C	0.4288242	0.1620176	1.6105001
H	1.4951526	0.3089253	1.8182842
H	-0.0944411	1.0790190	1.8897308
H	0.0776135	-0.6452164	2.2663617
C	0.8008820	-3.4124590	-1.4530902
C	0.3441320	-1.9529956	-1.6075331
N	0.7039100	-1.3682130	-0.3108633
C	1.9034638	-2.0037959	0.2546871
C	2.0770105	-3.3146970	-0.5819864
H	0.0263506	-3.9868565	-0.9330638
H	0.9962479	-3.8974557	-2.4141350
H	-0.7354399	-1.8592288	-1.7618454
H	0.8562010	-1.4520850	-2.4443376
H	1.7739292	-2.2142996	1.3201146
H	2.9631260	-3.2356965	-1.2179740
H	2.2080001	-4.1820116	0.0704683
C	2.2733923	-0.2764428	6.1124142
H	3.2248292	0.0622697	6.5647686
O	1.3931829	-0.7762435	6.8219512
C	2.1586580	-0.0807360	4.6266104
H	2.9672996	-0.6164330	4.1116595
H	1.1924859	-0.4410169	4.2670469
H	2.2728200	0.9822322	4.3758537
