31
-0.000658441 (energy)
C	2.9825485	2.6654960	1.3376061
O	2.7558347	3.8568093	1.5695101
O	3.6175895	2.2508807	0.1845832
H	3.8124235	3.0197577	-0.3943766
C	0.0000000	0.0000000	0.0000000
H	0.5416646	-0.8039321	-0.4828002
H	-1.0084794	0.1852300	-0.3478111
C	0.5263290	0.7517804	0.9932083
C	-0.2503285	1.8931520	1.6177201
H	0.2508562	2.8604111	1.4950989
H	-1.2371175	1.9683104	1.1559121
H	-0.3883465	1.7323207	2.6948526
C	3.5660222	-0.7759203	2.4002903
C	2.5582691	-0.7157289	1.2412747
N	1.7832606	0.4897229	1.5559349
C	2.6059255	1.4977319	2.2414147
C	3.8768645	0.7102103	2.7030708
H	3.0991029	-1.2532684	3.2688432
H	4.4681823	-1.3403193	2.1462085
H	1.8891389	-1.5815250	1.2140348
H	3.0635565	-0.6404253	0.2653741
H	2.0691262	1.9371664	3.0869740
H	4.7473164	1.0385664	2.1282510
H	4.0861272	0.8887456	3.7610993
C	4.8123787	-0.2619469	-3.7215080
H	5.4255718	-1.1831201	-3.7256258
O	4.9977467	0.6097503	-4.5781263
C	3.7834615	-0.1755769	-2.6292865
H	4.2694085	-0.2418519	-1.6466828
H	3.2272592	0.7614571	-2.7012803
H	3.0887954	-1.0233143	-2.6970638
