31
-0.00060893 (energy)
C	3.7391346	-0.0925856	1.9493472
O	3.8487587	-0.1273683	3.1786474
O	3.9426313	1.0659637	1.2275457
H	4.1430612	1.8144413	1.8308166
C	0.0000000	0.0000000	0.0000000
H	0.2057618	0.4205780	-0.9765140
H	-0.9980659	0.1472685	0.3930519
C	0.9200868	-0.6836361	0.7174543
C	0.6048175	-1.2242230	2.0974224
H	1.2562984	-0.8048580	2.8729982
H	-0.4269324	-0.9851626	2.3638996
H	0.7219764	-2.3152837	2.1288941
C	3.8092639	-1.6626408	-1.3435382
C	2.5718534	-0.7652497	-1.1822582
N	2.1910397	-0.9968070	0.2156422
C	3.3652963	-1.2705013	1.0576368
C	4.5074097	-1.5883982	0.0363037
H	3.4931232	-2.6896417	-1.5570404
H	4.4663659	-1.3336979	-2.1540997
H	1.7455977	-1.0582557	-1.8376428
H	2.8075350	0.2928830	-1.3776477
H	3.1790168	-2.1088621	1.7348944
H	5.2469505	-0.7828149	0.0423864
H	5.0205089	-2.5174775	0.2982788
C	2.3894251	5.3460558	2.8223567
H	1.3544145	5.6025006	3.1182825
O	3.3427561	5.9771919	3.2922921
C	2.5195648	4.2133252	1.8430392
H	1.9707095	4.4465485	0.9208616
H	3.5701758	4.0296094	1.6084291
H	2.0691470	3.3018510	2.2579511
