31
-0.000575882 (energy)
C	1.6064376	0.6685485	2.8500776
O	1.2340613	0.1215078	3.8924253
O	1.4821327	2.0285171	2.6508831
H	1.0424146	2.4486830	3.4218793
C	-0.6161705	0.4949566	-0.7303600
H	-0.2817070	1.3484254	-1.3070128
H	-1.6220654	0.1425979	-0.9209697
C	0.1598891	-0.1252242	0.1871180
C	-0.3580793	-1.2934222	1.0013436
H	-0.3509242	-1.0918367	2.0788984
H	-1.3860450	-1.5219286	0.7119664
H	0.2516677	-2.1908349	0.8340439
C	3.6971255	0.8430624	-0.1351618
C	2.2287677	1.1540607	-0.4663900
N	1.5023498	0.2182814	0.3992875
C	2.2303531	-0.0361033	1.6515022
C	3.6749413	0.4974136	1.3737842
H	4.0307771	-0.0210201	-0.7202233
H	4.3657709	1.6808150	-0.3544344
H	1.9767516	0.9524313	-1.5122932
H	1.9749832	2.2033348	-0.2473348
H	2.2298171	-1.1013712	1.8993544
H	3.8609556	1.3953848	1.9695765
H	4.4272730	-0.2477825	1.6453901
C	2.1806851	-2.8293169	5.7578630
H	1.9717600	-1.8852766	6.2961204
O	2.1903247	-3.9029177	6.3704809
C	2.4389011	-2.6891034	4.2838404
H	3.2968542	-2.0253811	4.1122708
H	2.6346574	-3.6654263	3.8354546
H	1.5746934	-2.2234958	3.7917348
