31
-0.00386392 (energy)
C	-0.2877661	-0.1206653	0.3797611
O	0.7815360	0.3560204	0.7718961
O	-0.5757079	-0.2704528	-0.9616180
H	0.1597404	0.0787221	-1.5107257
C	-3.8842108	2.0825068	0.3440918
H	-4.5090850	1.5831213	-0.3859422
H	-4.0676251	3.1379449	0.5013271
C	-2.9167520	1.4480551	1.0442012
C	-2.0375234	2.1906211	2.0298451
H	-0.9751379	2.1462669	1.7630458
H	-2.3277805	3.2427403	2.0681050
H	-2.1373087	1.7715459	3.0395723
C	-3.2447998	-2.2120406	0.8215609
C	-3.6183463	-0.8360137	0.2475228
N	-2.7059637	0.0646275	0.9610822
C	-1.4287165	-0.5947625	1.2718664
C	-1.7173271	-2.1174318	1.0555688
H	-3.7679151	-2.3683053	1.7713981
H	-3.5068100	-3.0348273	0.1497207
H	-4.6529977	-0.5516206	0.4636180
H	-3.4710601	-0.7958900	-0.8433780
H	-1.1130887	-0.3812522	2.2970586
H	-1.1775048	-2.4771300	0.1751535
H	-1.3866854	-2.7054145	1.9158260
C	3.6704224	2.8114988	1.7797644
H	3.5504970	2.4424098	2.8160916
O	3.6645538	4.0260521	1.5498990
C	3.8330914	1.7482176	0.7299787
H	2.9629711	1.0781975	0.7331991
H	3.9446920	2.2002056	-0.2578618
H	4.7113384	1.1281239	0.9535393
