31
-0.0036249 (energy)
C	-0.6138544	0.4299796	-2.4491170
O	-1.7688418	0.5460575	-2.8697548
O	0.3776205	-0.1825434	-3.1883313
H	0.0145980	-0.5170573	-4.0372374
C	0.4860642	-2.4696072	0.4095942
H	1.5533085	-2.5985370	0.2785590
H	-0.0618111	-3.3161480	0.8039477
C	-0.1605126	-1.3205929	0.1089894
C	-1.6616095	-1.1921439	0.2706987
H	-2.1695010	-0.9688675	-0.6748202
H	-2.0752372	-2.1254014	0.6587842
H	-1.9142892	-0.3877782	0.9737486
C	2.1788780	1.4845851	-0.3511326
C	1.9717375	-0.0366229	-0.2767977
N	0.5099435	-0.1601956	-0.3023244
C	-0.1095703	0.9128269	-1.0945160
C	1.0274756	1.9746338	-1.2627290
H	2.0838917	1.9177948	0.6506487
H	3.1611307	1.7578389	-0.7480061
H	2.3575815	-0.4736684	0.6495909
H	2.4461946	-0.5544810	-1.1253738
H	-0.9825809	1.3279395	-0.5828905
H	1.3576044	2.0044528	-2.3048651
H	0.6743010	2.9735647	-0.9934805
C	0.6259571	-4.3377254	-3.6119805
H	0.7261117	-5.4274035	-3.4471976
O	-0.2309604	-3.9048900	-4.3906704
C	1.5835869	-3.4764133	-2.8372774
H	2.6189797	-3.7446836	-3.0863549
H	1.4142065	-2.4207881	-3.0598588
H	1.4614862	-3.6507218	-1.7600025
