31
-0.00340391 (energy)
C	2.5837374	1.0758945	-1.8213438
O	3.4287491	0.2617343	-2.2054072
O	2.8790551	2.0593897	-0.8992975
H	3.8104260	1.9783982	-0.5987728
C	-0.4021770	0.0998892	0.9931514
H	-0.7064311	1.0491613	1.4163715
H	-0.5225816	-0.7740126	1.6209344
C	0.1032191	-0.0231085	-0.2550894
C	0.5531839	-1.3644412	-0.7975828
H	1.6170273	-1.3764060	-1.0619806
H	0.3869272	-2.1429138	-0.0499150
H	-0.0097898	-1.6324313	-1.7011160
C	-0.4831161	3.0006585	-2.2716529
C	-0.4299108	2.3589401	-0.8759906
N	0.1821495	1.0537488	-1.1491593
C	1.1288703	1.1250197	-2.2722721
C	0.8007168	2.4875276	-2.9683255
H	-1.3735236	2.6487958	-2.8042185
H	-0.5199684	4.0934121	-2.2325610
H	-1.4219585	2.2108961	-0.4378074
H	0.1702966	2.9592450	-0.1740269
H	0.9995219	0.2782424	-2.9523189
H	1.6222302	3.1923528	-2.8125720
H	0.6704244	2.3562216	-4.0457635
C	5.0659277	-2.9034198	-4.5072720
H	5.6401978	-2.0608394	-4.9372196
O	4.9136775	-3.9445834	-5.1559710
C	4.5157502	-2.6730287	-3.1276697
H	3.8512693	-1.7986650	-3.1273294
H	3.9662695	-3.5517988	-2.7835608
H	5.3322283	-2.4507977	-2.4278196
