31
-0.00248031 (energy)
C	2.3053146	0.7562656	-0.8206463
O	2.5190006	1.2793529	-1.9184278
O	3.2054665	-0.1093674	-0.2332361
H	3.9784376	-0.2510155	-0.8221147
C	-0.3189672	-2.5087162	-0.3280075
H	-0.0045977	-2.9815617	0.5941597
H	-0.8024671	-3.1430878	-1.0602054
C	-0.1352063	-1.1933600	-0.5824259
C	-0.5551217	-0.5766559	-1.9012467
H	0.2878383	-0.1396192	-2.4491788
H	-1.0091369	-1.3373603	-2.5398912
H	-1.2913680	0.2225541	-1.7452506
C	0.7241563	0.6820094	2.4668314
C	0.6149812	-0.6821035	1.7669861
N	0.3862822	-0.3043404	0.3677880
C	1.0588611	0.9596872	0.0322083
C	1.4219645	1.5844654	1.4201604
H	-0.2789000	1.0615900	2.6905625
H	1.2855667	0.6315085	3.4045225
H	-0.2303323	-1.2777728	2.1257386
H	1.5330542	-1.2781415	1.8904715
H	0.4034116	1.6134304	-0.5502284
H	2.5055945	1.5631845	1.5658144
H	1.0954783	2.6261201	1.4789161
C	4.4766671	4.9774134	-3.2892564
H	4.5637660	4.6075688	-4.3285887
O	4.5570294	6.1881947	-3.0535389
C	4.2619709	3.9198955	-2.2430062
H	5.0906825	3.1994536	-2.2587399
H	4.1876052	4.3722646	-1.2518409
H	3.3461874	3.3542466	-2.4602507
