31
-0.00247486 (energy)
C	1.4144819	-2.1343576	0.0602682
O	2.6436817	-2.1547519	0.1745407
O	0.7356265	-3.0460281	-0.7224559
H	1.3670991	-3.6512574	-1.1688484
C	-0.5968404	0.6441695	-2.3941205
H	-1.5549052	0.1858222	-2.6058581
H	-0.2168829	1.3406486	-3.1309125
C	0.1135560	0.3842435	-1.2732127
C	1.4688177	1.0171928	-1.0311762
H	2.2694662	0.2744925	-0.9354134
H	1.7247676	1.6777116	-1.8623635
H	1.4658017	1.6132388	-0.1093030
C	-1.9273811	-1.3166380	1.2753285
C	-1.7581567	-0.9139225	-0.1983370
N	-0.3757891	-0.4237196	-0.2373800
C	0.4773089	-1.1344880	0.7268680
C	-0.5336324	-1.8575202	1.6775650
H	-2.1807526	-0.4328052	1.8710646
H	-2.7146580	-2.0622076	1.4213337
H	-2.4375751	-0.1106966	-0.5004943
H	-1.9137704	-1.7690924	-0.8749732
H	1.1226843	-0.4390537	1.2710081
H	-0.4874205	-2.9383037	1.5172729
H	-0.2938453	-1.6628579	2.7262302
C	6.3009699	-1.0990236	2.1332886
H	7.1230882	-1.2068050	1.4004260
O	6.4766985	-1.4214707	3.3136104
C	5.0138368	-0.5503958	1.5843134
H	4.6418307	-1.1960161	0.7775714
H	4.2618782	-0.4781359	2.3729284
H	5.1833784	0.4411498	1.1439656
