31
-0.00224492 (energy)
C	-1.1040221	0.4299798	2.2707105
O	-0.4896312	0.5460578	3.3353493
O	-2.3386938	-0.1825431	2.1996738
H	-2.6062687	-0.5170570	3.0833201
C	-0.1090649	-2.4696073	-0.6262032
H	-1.0108492	-2.5985371	-1.2118357
H	0.5641175	-3.3161481	-0.5761280
C	0.1930168	-1.3205929	0.0196849
C	1.4468685	-1.1921439	0.8606947
H	1.2281682	-0.9688674	1.9114706
H	2.0131822	-2.1254014	0.8292788
H	2.0923441	-0.3877783	0.4845466
C	-1.8948211	1.4845850	-1.1315726
C	-1.6883608	-0.0366230	-1.0553689
N	-0.5849698	-0.1601956	-0.0961914
C	-0.6196055	0.9128270	0.9088783
C	-1.5987584	1.9746339	0.3068579
H	-1.1781248	1.9177947	-1.8379257
H	-2.9023757	1.7578389	-1.4589297
H	-1.3884634	-0.4736685	-2.0130395
H	-2.5972702	-0.5544809	-0.7102970
H	0.3780260	1.3279396	1.0781107
H	-2.5215239	2.0044530	0.8929778
H	-1.1551414	2.9735648	0.3276177
C	2.5653783	0.3731752	-2.2219335
H	2.5276229	-0.7165030	-2.4110334
O	3.1042897	0.8060109	-1.1971213
C	1.9304647	1.2344871	-3.2774451
H	0.8723242	0.9662167	-3.3975139
H	2.0135028	2.2901123	-3.0103557
H	2.4136515	1.0601784	-4.2479915
