31
-0.00957178 (energy)
C	1.5487669	1.0826424	-0.7790291
O	2.7821656	1.0780394	-0.7229297
O	0.8654510	1.7681081	-1.7630199
H	1.4967442	2.2374880	-2.3515432
N	-0.3842614	1.2424070	0.7969574
C	-1.5267195	0.0372091	-0.9272550
C	-1.6915061	1.1568587	0.1254319
C	-1.0528201	3.1052744	2.1776787
H	-2.0349544	3.1834575	1.7295495
H	-0.8273975	3.7976784	2.9786461
C	-0.1301698	2.1934166	1.7903909
C	1.2282116	2.1206211	2.4559843
H	2.0519673	2.2245659	1.7398803
H	1.3222373	2.9189258	3.1948494
H	1.3684747	1.1632005	2.9752563
C	0.6196478	0.3635972	0.1954747
C	-0.2454331	-0.7171658	-0.5024436
H	-2.3962401	-0.6259937	-0.9607801
H	-1.3923956	0.4729467	-1.9204014
H	-2.4687555	0.9280411	0.8685077
H	-1.9555559	2.1141450	-0.3444126
H	1.2750310	-0.0748961	0.9514538
H	0.2686777	-1.1918903	-1.3433977
H	-0.4771839	-1.4945974	0.2339511
C	1.7997986	3.9844618	-5.1897039
H	2.2689392	3.8416407	-6.1817180
O	2.2362337	3.3783519	-4.2047331
C	0.6387755	4.9383613	-5.1553656
H	-0.1510640	4.5965010	-5.8375180
H	0.2394660	5.0182254	-4.1420786
H	0.9540459	5.9296821	-5.5070772
