31
-0.00272544 (energy)
C	2.5366578	-1.3413655	1.6676170
O	2.4083960	-1.0025753	2.8479606
O	3.6777136	-1.0548006	0.9458873
H	4.3111071	-0.5464075	1.4986598
N	1.1422943	-1.4282680	-0.4045932
C	2.6501280	-3.1873235	-1.0069077
C	1.8581313	-1.9831436	-1.5651295
C	0.2101187	0.4019577	-1.6714631
H	0.7217242	0.1299800	-2.5856884
H	-0.4454881	1.2620396	-1.7186477
C	0.3493669	-0.2811678	-0.5109849
C	-0.3958140	0.1366772	0.7394648
H	0.2768009	0.3284060	1.5838653
H	-0.9615045	1.0502576	0.5460279
H	-1.1059190	-0.6374737	1.0594849
C	1.4928327	-2.0967836	0.8492535
C	2.0064946	-3.4783473	0.3686949
H	2.5994035	-4.0554384	-1.6708590
H	3.7013914	-2.9178379	-0.8785618
H	1.1310766	-2.2755667	-2.3361781
H	2.5271732	-1.2336392	-2.0095385
H	0.6264065	-2.1983706	1.5067439
H	2.7018972	-3.9400553	1.0758852
H	1.1425642	-4.1435878	0.2616213
C	5.2948655	-3.1447530	2.8985752
H	5.2656680	-3.5216869	1.8585505
O	5.1389607	-1.9396954	3.1256037
C	5.5304830	-4.1858298	3.9567442
H	6.4837439	-4.6999353	3.7749860
H	5.5438026	-3.7273840	4.9478178
H	4.7444895	-4.9515090	3.9147566
