31
-0.00770452 (energy)
C	-0.3731107	0.2024272	0.2502282
O	-0.6702316	0.0465474	-0.9379895
O	0.8613535	-0.1628976	0.7478804
H	1.4093229	-0.5637038	0.0377451
N	-1.4524622	-0.0667209	2.4881773
C	0.1218003	1.6161777	3.1363833
C	-0.5774632	0.3205814	3.6068942
C	-2.1858843	-2.0935074	3.5734724
H	-1.5478772	-1.9528381	4.4364203
H	-2.8252837	-2.9669646	3.5788171
C	-2.2183324	-1.2362905	2.5261489
C	-3.1357916	-1.4751274	1.3451582
H	-2.5922027	-1.5171944	0.3938830
H	-3.6648648	-2.4216918	1.4722414
H	-3.8869849	-0.6791951	1.2547599
C	-1.2893535	0.7958346	1.3171456
C	-0.7153390	2.0993795	1.9293394
H	0.1654442	2.3699552	3.9281804
H	1.1440954	1.3965207	2.8187147
H	-1.1858384	0.4720322	4.5099879
H	0.1510704	-0.4712319	3.8285777
H	-2.2422534	0.9755308	0.8141555
H	-0.1311524	2.6821421	1.2110142
H	-1.5564859	2.7179715	2.2613052
C	4.6038437	-0.1530148	0.4479425
H	4.7835146	0.9366634	0.5179611
O	3.6881817	-0.5858505	-0.2607384
C	5.5330680	-1.0143266	1.2564982
H	5.4675686	-0.7460561	2.3194129
H	5.2844557	-2.0699519	1.1283420
H	6.5727742	-0.8400181	0.9491856
