31
-0.00248265 (energy)
C	0.0301487	-0.3435256	-0.3519712
O	-1.1474386	-0.0818560	-0.0888018
O	1.0783601	0.2803100	0.2938643
H	0.7373496	0.9406924	0.9363712
N	1.4285935	-0.7930227	-2.3738913
C	2.7770879	-2.0189861	-0.8217322
C	2.8349304	-1.0891065	-2.0549790
C	2.0017754	0.7086991	-4.1738722
H	3.0681138	0.6179169	-4.0120047
H	1.6867043	1.3391774	-4.9954650
C	1.0785428	0.0726704	-3.4150118
C	-0.4029548	0.2273152	-3.6884408
H	-0.9549888	0.5905327	-2.8135040
H	-0.5574342	0.9383517	-4.5024531
H	-0.8568386	-0.7276597	-3.9850620
C	0.4960048	-1.3549891	-1.3959375
C	1.3131876	-2.5145899	-0.7706042
H	3.4846263	-2.8497833	-0.9004307
H	3.0131263	-1.4554496	0.0843376
H	3.3128449	-1.5660613	-2.9225894
H	3.3911807	-0.1671651	-1.8370734
H	-0.4160474	-1.7200791	-1.8736174
H	0.9831931	-2.7663318	0.2416244
H	1.1801050	-3.4017918	-1.3995296
C	-5.1620567	-0.2324040	0.5450028
H	-5.3558384	-1.2813119	0.8396615
O	-5.8521203	0.3031996	-0.3296131
C	-4.0356565	0.4457384	1.2733047
H	-3.0997970	-0.1083641	1.1210404
H	-3.9158563	1.4724276	0.9209784
H	-4.2310956	0.4467319	2.3538675
