31
-0.00245541 (energy)
C	2.0568802	-0.4627974	1.3419832
O	3.2245922	-0.8112589	1.1433275
O	1.3162850	-0.9591451	2.3956337
H	1.8447552	-1.6121693	2.9050323
N	0.0000000	0.0000000	0.0000000
C	-0.5471559	1.4171883	1.8500862
C	-1.1442394	0.4328096	0.8188688
C	-1.3276809	-1.5382583	-1.3017917
H	-2.2348793	-1.3472873	-0.7431852
H	-1.4022010	-2.2355686	-2.1264084
C	-0.1434333	-0.9457857	-1.0202001
C	1.0960255	-1.2420094	-1.8384341
H	1.9275147	-1.6055272	-1.2230777
H	0.8726702	-2.0051829	-2.5865860
H	1.4502747	-0.3466214	-2.3664109
C	1.2754012	0.5293946	0.4847833
C	0.8432389	1.7863220	1.2828263
H	-1.1776076	2.3008294	1.9869688
H	-0.4369797	0.9241514	2.8191197
H	-1.8982345	0.9034552	0.1718603
H	-1.6215493	-0.4249620	1.3120993
H	1.9427759	0.7888553	-0.3402009
H	1.5620059	2.0609767	2.0605256
H	0.7677778	2.6247137	0.5815486
C	7.3717270	-0.3117587	-0.3269768
H	7.5727904	-1.3115143	-0.7566804
O	8.3108839	0.4266587	-0.0095872
C	5.9198564	0.0454272	-0.1734581
H	5.4167350	-0.6878070	0.4709668
H	5.8151833	1.0441729	0.2556425
H	5.4166685	0.0081105	-1.1487646
