31
-0.00233304 (energy)
C	0.1264622	-1.4093564	3.0020931
O	0.0791541	-2.6305981	2.8266758
O	-0.7970043	-0.7483529	3.7865072
H	-1.4641655	-1.3810090	4.1327013
N	0.5861335	0.6464627	1.6574121
C	1.2418814	1.5450836	3.7771046
C	0.5269250	1.8857210	2.4498055
C	-0.6992374	1.5762706	-0.1610807
H	-0.8605636	2.5238352	0.3365287
H	-1.1120666	1.4733866	-1.1564572
C	-0.0117281	0.5520462	0.3966429
C	0.1925429	-0.7519644	-0.3458819
H	-0.1802999	-1.6168300	0.2155259
H	-0.3328656	-0.7201079	-1.3024298
H	1.2559701	-0.9326928	-0.5518706
C	1.1695784	-0.4722486	2.3990311
C	2.0187715	0.2409154	3.4824385
H	1.9077840	2.3496947	4.1029921
H	0.5057151	1.3718919	4.5659733
H	1.0238977	2.6958345	1.8972023
H	-0.5136565	2.1932284	2.6215685
H	1.7883078	-1.1021099	1.7557918
H	2.1711964	-0.3753564	4.3734228
H	3.0019972	0.4618801	3.0525233
C	4.3131122	-2.1764276	0.3326476
H	4.9966115	-1.4590864	0.8254285
O	3.3916727	-1.7643135	-0.3808813
C	4.5975033	-3.6278601	0.6001237
H	4.5506452	-3.8292717	1.6786804
H	3.8779929	-4.2611472	0.0768370
H	5.6157002	-3.8793132	0.2747628
