31
-0.00231712 (energy)
C	2.9222239	-1.2723253	-0.5760639
O	4.1131040	-1.4793553	-0.3243017
O	2.5027156	-0.8447982	-1.8195489
H	3.2743928	-0.7209476	-2.4148501
N	0.9350390	-0.2498884	0.5426743
C	-0.2811988	-1.7365915	-0.8859966
C	-0.2903278	-0.3189515	-0.2702589
C	0.5715265	2.0555430	1.1562556
H	-0.3226961	2.1543071	0.5544819
H	0.8696396	2.9236232	1.7301483
C	1.3005208	0.9166795	1.2219639
C	2.5409043	0.8280947	2.0863220
H	3.4300818	0.5366288	1.5148379
H	2.7407784	1.7969576	2.5482829
H	2.4161345	0.0910123	2.8907557
C	1.7701527	-1.4444602	0.4103677
C	0.7553664	-2.5224111	-0.0497782
H	-1.2693178	-2.2051273	-0.8524862
H	0.0382694	-1.6900085	-1.9300369
H	-1.1646076	-0.1423273	0.3724499
H	-0.2903279	0.4567832	-1.0481464
H	2.2385964	-1.7148136	1.3594606
H	1.2270950	-3.3353442	-0.6096792
H	0.2893167	-2.9535072	0.8431604
C	3.0963240	4.9294042	3.8981551
H	3.0113129	5.6304215	3.0461395
O	3.2535383	3.7206302	3.6928229
C	3.0068784	5.5556972	5.2615459
H	2.0493920	6.0817938	5.3732996
H	3.1003027	4.7943501	6.0388485
H	3.7977478	6.3075407	5.3843078
