31
-0.0021412 (energy)
C	2.6631199	0.5004198	1.9163019
O	2.4875501	-0.1506779	2.9505590
O	2.8807092	1.8631827	1.9398322
H	2.8469415	2.1971321	2.8631663
N	1.7284277	0.6013118	-0.3993034
C	3.8920092	1.4766650	-0.9315560
C	2.3850563	1.6084636	-1.2487963
C	-0.4891187	1.2428132	-1.1025820
H	-0.1388394	2.0530613	-1.7289384
H	-1.5575547	1.0699825	-1.0835657
C	0.3376388	0.4565706	-0.3738469
C	-0.2032711	-0.6701606	0.4813764
H	0.0965010	-0.5798644	1.5321695
H	-1.2943701	-0.6743733	0.4421593
H	0.1500511	-1.6472909	0.1259171
C	2.6624110	-0.0744971	0.5022948
C	4.0252660	0.1143193	-0.2121828
H	4.5071874	1.5206569	-1.8352421
H	4.2071064	2.2837841	-0.2655812
H	2.1549742	1.4015065	-2.3037214
H	2.0135166	2.6170289	-1.0215798
H	2.4147142	-1.1320055	0.6190432
H	4.8730935	0.0776723	0.4782683
H	4.1445613	-0.6987766	-0.9367719
C	1.6519788	2.4088934	-4.9751551
H	0.8193565	2.7506864	-4.3313380
O	2.4116451	1.5157436	-4.5837439
C	1.7658744	3.0997145	-6.3051446
H	1.8958727	4.1804078	-6.1593732
H	2.6103051	2.7015272	-6.8716782
H	0.8399309	2.9666695	-6.8802455
