31
-0.0034744 (energy)
C	-1.7737574	0.7764333	0.6546876
O	-2.9345545	0.3873184	0.8146264
O	-1.3040915	1.9331696	1.2432424
H	-2.0204584	2.3697367	1.7545503
N	-0.1047172	0.9375924	-1.1984689
C	1.4771849	0.8108122	0.5937737
C	1.1923885	1.4845724	-0.7677907
C	-0.1859386	2.3055691	-3.1848425
H	0.7372467	2.8232556	-2.9584586
H	-0.6785552	2.5726218	-4.1110170
C	-0.7228092	1.3582892	-2.3803608
C	-2.0142813	0.6575953	-2.7472961
H	-2.7808393	0.7573468	-1.9697221
H	-2.4154068	1.0794380	-3.6709842
H	-1.8544434	-0.4166983	-2.9095207
C	-0.7163562	0.0708006	-0.1902569
C	0.5020311	-0.3879290	0.6515287
H	2.5196407	0.4910373	0.6835393
H	1.2631789	1.5067565	1.4087049
H	1.9557032	1.2506569	-1.5236148
H	1.1459817	2.5780585	-0.6728808
H	-1.2294184	-0.7782342	-0.6476571
H	0.2287688	-0.6666355	1.6735500
H	0.9379279	-1.2683854	0.1665793
C	1.7875974	-2.9336931	-2.6363009
H	2.6399649	-3.2316334	-3.2760541
O	1.9912354	-2.3640750	-1.5583033
C	0.4259011	-3.2707802	-3.1759616
H	0.3417036	-4.3535818	-3.3387447
H	-0.3518845	-2.9421115	-2.4834277
H	0.2773946	-2.7910502	-4.1524954
