31
-0.00204453 (energy)
C	0.6280085	1.7934633	2.6228131
O	0.6650555	2.0100833	3.8377798
O	0.0735713	2.6953124	1.7372121
H	-0.2823477	3.4725408	2.2214084
N	0.1727883	-0.1262680	1.0887783
C	1.5815421	1.1010052	-0.4078293
C	0.3135318	0.2202258	-0.3350501
C	-1.8950739	-1.3212310	0.7428795
H	-1.9384892	-1.0936342	-0.3143976
H	-2.6906037	-1.9384134	1.1403790
C	-0.9059031	-0.8833721	1.5568702
C	-0.8875658	-1.2369219	3.0293442
H	-0.8570222	-0.3498507	3.6730481
H	-1.7829217	-1.8071043	3.2848490
H	-0.0134769	-1.8517021	3.2822973
C	1.1636977	0.5408873	1.9343102
C	2.3066705	0.8591076	0.9363862
H	2.2132655	0.8413753	-1.2625490
H	1.3023473	2.1536888	-0.4981484
H	0.4039602	-0.7015492	-0.9273250
H	-0.5718383	0.7601201	-0.6976894
H	1.5068590	-0.1099199	2.7417743
H	2.9174272	1.7105632	1.2508333
H	2.9583977	-0.0194415	0.8748334
C	0.7879535	-3.2091975	-2.0527921
H	1.3484725	-4.1250738	-1.7852627
O	1.3960219	-2.1831581	-2.3776122
C	-0.7091142	-3.3255164	-1.9869417
H	-1.0216200	-3.6081219	-0.9727814
H	-1.1786607	-2.3797565	-2.2655832
H	-1.0558736	-4.1218480	-2.6588250
