31
-0.00690058 (energy)
C	2.0265839	-0.3463616	-2.6053468
O	1.8775877	0.6559934	-3.3107016
O	1.8233791	-1.6205224	-3.0954935
H	1.5348333	-1.5820020	-4.0338249
N	1.5143683	-1.0691591	-0.2684567
C	3.3792124	-2.5303483	-0.6118281
C	1.9783526	-2.4331271	0.0339733
C	-0.6391876	-1.4170845	0.7634261
H	-0.4429135	-2.4546421	1.0010621
H	-1.5952488	-1.0187147	1.0781257
C	0.2459729	-0.6230462	0.1163139
C	-0.0748322	0.8259058	-0.1855728
H	0.0004196	1.0579422	-1.2545345
H	-1.0921756	1.0554241	0.1375164
H	0.6073933	1.5051639	0.3427721
C	2.4380165	-0.3362872	-1.1354599
C	3.7849370	-1.0652104	-0.8946705
H	4.0987998	-3.0320494	0.0420204
H	3.3223513	-3.0902839	-1.5485718
H	2.0038492	-2.5762689	1.1236963
H	1.2916280	-3.1832114	-0.3815458
H	2.4985244	0.7185921	-0.8581939
H	4.4744149	-0.9688647	-1.7385988
H	4.2617874	-0.6165421	-0.0162083
C	2.7619106	3.3041828	-1.3520008
H	2.6309704	2.5907268	-2.1877149
O	2.8258158	2.8910447	-0.1887102
C	2.8503078	4.7518867	-1.7462310
H	1.9420096	5.0525357	-2.2853520
H	2.9783618	5.3814385	-0.8631435
H	3.6924351	4.9051589	-2.4340845
