31
-0.00189336 (energy)
C	-1.4974427	-1.9974829	2.0634392
O	-2.2505537	-2.9306671	2.3574321
O	-1.5855113	-0.7662090	2.6808777
H	-2.3214974	-0.7639083	3.3316675
N	-0.4975237	-0.9918045	0.0056177
C	1.2158178	-0.2889276	1.5225376
C	0.3941414	0.1451379	0.2874852
C	-1.6099592	0.1437897	-1.8100228
H	-1.0546341	1.0631684	-1.6763179
H	-2.3237838	0.1209162	-2.6234837
C	-1.4401409	-0.9471232	-1.0265491
C	-2.2377750	-2.2129802	-1.2608556
H	-2.7982084	-2.5258413	-0.3719151
H	-2.9526355	-2.0560622	-2.0710432
H	-1.5858162	-3.0498674	-1.5446532
C	-0.3958353	-2.0530355	1.0082990
C	1.0125419	-1.8192184	1.6127049
H	2.2730948	-0.0246628	1.4258044
H	0.8250683	0.1939873	2.4216249
H	1.0238099	0.3413703	-0.5920864
H	-0.1837428	1.0572482	0.4899151
H	-0.4776076	-3.0436357	0.5551627
H	1.1032861	-2.2021529	2.6334909
H	1.7421189	-2.3465566	0.9881913
C	5.3883323	-0.0850725	1.7263712
H	5.7655476	-0.9098610	1.0923244
O	4.4714605	0.6383731	1.3214210
C	6.0634006	0.0646400	3.0608925
H	7.1398351	0.2327359	2.9227640
H	5.6300477	0.8985508	3.6171072
H	5.9593001	-0.8608639	3.6426303
