31
-0.00182091 (energy)
C	-2.6631199	-1.1256545	1.6295813
O	-2.4875500	-0.8675594	2.8241536
O	-2.8807091	-2.4142807	1.1856004
H	-2.8469414	-3.0438892	1.9390334
N	-1.7284277	-0.4284786	-0.5808831
C	-3.8920092	-1.0690007	-1.3804253
C	-2.3850562	-1.0843483	-1.7236114
C	0.4891187	-0.7907574	-1.4611552
H	0.1388394	-1.3379152	-2.3268588
H	1.5575547	-0.6348535	-1.3841741
C	-0.3376388	-0.3011729	-0.5074575
C	0.2032711	0.4651047	0.6815541
H	-0.0965010	0.0208617	1.6380937
H	1.2943701	0.4824764	0.6461430
H	-0.1500512	1.5048810	0.6817298
C	-2.6624110	-0.1017906	0.4974823
C	-4.0252660	-0.0348544	-0.2384861
H	-4.5071873	-0.8012610	-2.2446586
H	-4.2071063	-2.0552214	-1.0306644
H	-2.1549742	-0.5290667	-2.6441333
H	-2.0135165	-2.1098023	-1.8550473
H	-2.4147143	0.8520120	0.9688789
H	-4.8730934	-0.2365656	0.4228598
H	-4.1445614	0.9770297	-0.6412821
C	4.1364098	2.1020778	0.8622230
H	4.4621360	2.3688929	-0.1611513
O	3.4792197	1.0730008	1.0548729
C	4.5486238	3.0624153	1.9424589
H	4.1503243	4.0635083	1.7298155
H	4.1865408	2.7222366	2.9149563
H	5.6424838	3.1553894	1.9677460
