31
-0.00168416 (energy)
C	1.1456119	2.4908592	1.8703034
O	1.0411606	2.1323933	3.0471776
O	0.5461226	3.6425968	1.4021852
H	0.0376016	4.0778270	2.1213439
N	1.1176536	1.4486298	-0.4010030
C	2.4588326	3.3454006	-0.9790349
C	1.3330304	2.4170614	-1.4886184
C	-0.7121611	0.3601696	-1.5370795
H	-0.6935656	1.0395470	-2.3794693
H	-1.4405325	-0.4397831	-1.5736615
C	0.1246390	0.4668720	-0.4782403
C	0.0626325	-0.5155151	0.6726655
H	-0.0957123	-0.0205788	1.6381436
H	-0.7582486	-1.2182184	0.5164120
H	0.9914749	-1.0957115	0.7538776
C	1.9195611	1.7441559	0.7870754
C	3.0880887	2.5845700	0.2110973
H	3.1960365	3.5624094	-1.7577939
H	2.0368716	4.2933169	-0.6360283
H	1.6110305	1.8789556	-2.4061116
H	0.4139500	2.9799048	-1.7016251
H	2.2809758	0.8311145	1.2656595
H	3.5360559	3.2507469	0.9543409
H	3.8649791	1.8939153	-0.1350571
C	2.7344264	-2.6157352	2.4625412
H	2.9761780	-1.6803985	3.0022489
O	2.6502931	-2.6155750	1.2292798
C	2.5282376	-3.8266518	3.3287081
H	1.7116933	-3.6469418	4.0407521
H	2.2952465	-4.6999188	2.7157672
H	3.4299820	-4.0232578	3.9237009
