31
-0.00145683 (energy)
C	2.5366578	-1.4093565	-1.6105658
O	2.4083960	-2.6305983	-1.4818870
O	3.6777136	-0.7483530	-1.2030274
H	4.3111071	-1.3810091	-0.7983459
N	1.1422943	0.6464626	-1.3363126
C	2.6501280	1.5450833	-2.9640532
C	1.8581313	1.8857209	-1.6812333
C	0.2101187	1.5762706	0.6860975
H	0.7217242	2.5238353	0.5770053
H	-0.4454881	1.4733867	1.5413064
C	0.3493669	0.5520462	-0.1881647
C	-0.3958140	-0.7519644	0.0061940
H	0.2768009	-1.6168300	0.0483815
H	-0.9615045	-0.7201078	0.9394851
H	-1.1059190	-0.9326928	-0.8117666
C	1.4928327	-0.4722489	-2.2124000
C	2.0064946	0.2409150	-3.4895266
H	2.5994035	2.3496943	-3.7036856
H	3.7013914	1.3718916	-2.7209488
H	1.1310766	2.6958343	-1.8353228
H	2.5271732	2.1932283	-0.8659448
H	0.6264065	-1.1021101	-2.4266157
H	2.7018972	-0.3753568	-4.0670225
H	1.1425642	0.4618796	-4.1260675
C	1.1339371	-4.6866581	1.2857696
H	2.1336953	-5.0557469	1.5838295
O	0.9065447	-3.4721048	1.2516331
C	0.1283474	-5.7499394	0.9432785
H	-0.0195761	-6.4199595	1.8007391
H	-0.8251065	-5.2979516	0.6618365
H	0.5010177	-6.3700333	0.1171951
