31
-0.00340307 (energy)
C	-0.1816367	0.2024272	-0.4108940
O	1.0401239	0.0465474	-0.4971690
O	-0.8860909	-0.1628976	0.7183995
H	-0.2818980	-0.5637036	1.3813578
N	-2.1981587	-0.0667214	-1.8624637
C	-3.1098851	1.6161773	-0.4246779
C	-3.4518219	0.3205809	-1.1950212
C	-3.1396080	-2.0935081	-2.7732028
H	-4.1002346	-1.9528388	-2.2947378
H	-3.0338409	-2.9669654	-3.4038162
C	-2.1025613	-1.2362911	-2.6232921
C	-0.7801973	-1.4751280	-3.3217360
H	0.0622326	-1.5171947	-2.6212182
H	-0.8134771	-2.4216924	-3.8648391
H	-0.5607291	-0.6791957	-4.0458196
C	-1.0732412	0.7958343	-1.4984855
C	-1.7758113	2.0993792	-1.0394980
H	-3.8972318	2.3699547	-0.5191913
H	-2.9745623	1.3965205	0.6372490
H	-4.2355523	0.4720315	-1.9509744
H	-3.7966460	-0.4712324	-0.5160505
H	-0.4124233	0.9755304	-2.3495653
H	-1.1698420	2.6821419	-0.3394508
H	-1.9566701	2.7179710	-1.9255114
C	3.4052574	-2.1819282	0.1902283
H	2.8996970	-1.2297855	-0.0596032
O	2.8182313	-3.2571848	0.0251961
C	4.8044838	-2.0501021	0.7230188
H	4.8052569	-1.4376764	1.6346004
H	5.2246338	-3.0341268	0.9415280
H	5.4394233	-1.5315930	-0.0076065
