31
-0.00130595 (energy)
C	1.1456119	1.7009606	2.6094343
O	1.0411606	0.9615981	3.5927318
O	0.5461226	2.9433458	2.5634645
H	0.0376016	3.1063616	3.3881101
N	1.1176536	1.4984179	0.1186410
C	2.4588326	3.4784979	0.2242025
C	1.3330304	2.7804323	-0.5721600
C	-0.7121611	0.8641609	-1.3211970
H	-0.6935656	1.7906810	-1.8804237
H	-1.4405325	0.1249630	-1.6291728
C	0.1246390	0.6022840	-0.2897193
C	0.0626325	-0.7144909	0.4557822
H	-0.0957123	-0.5796158	1.5323131
H	-0.7582486	-1.3213741	0.0686133
H	0.9914749	-1.2874734	0.3336578
C	1.9195611	1.3697748	1.3361454
C	3.0880887	2.3565019	1.0823416
H	3.1960365	3.9487707	-0.4333702
H	2.0368716	4.2519327	0.8707297
H	1.6110305	2.5885793	-1.6183647
H	0.4139500	3.3821846	-0.5798171
H	2.2809758	0.3481111	1.4735888
H	3.5360559	2.7282990	2.0086080
H	3.8649791	1.8258905	0.5208450
C	1.3034060	-3.3260990	2.6937887
H	0.5348955	-2.6681843	2.2453215
O	2.3820598	-3.5021546	2.1162746
C	0.9295694	-3.9543424	4.0070421
H	0.0189409	-4.5572205	3.8915404
H	1.7425041	-4.5840290	4.3747494
H	0.7022417	-3.1755358	4.7470392
