31
-0.00048382 (energy)
C	2.0265839	2.4294774	1.0027154
O	1.8775877	2.5391550	2.2234577
O	1.8233791	3.4910373	0.1443331
H	1.5348333	4.2843958	0.6468584
N	1.5143683	0.7670699	-0.7916906
C	3.3792124	1.7950327	-1.8854319
C	1.9783526	1.1871418	-2.1241366
C	-0.6391876	0.0473958	-1.6089443
H	-0.4429135	0.3603757	-2.6263134
H	-1.5952488	-0.4243270	-1.4212956
C	0.2459729	0.2107923	-0.5977308
C	-0.0748322	-0.2522422	0.8080418
H	0.0004196	0.5574877	1.5434720
H	-1.0921756	-0.6468047	0.8452659
H	0.6073933	-1.0494313	1.1321242
C	2.4380165	1.1514807	0.2764966
C	3.7849370	1.3074126	-0.4751641
H	4.0987998	1.4796339	-2.6468421
H	3.3223513	2.8862444	-1.9019786
H	2.0038492	0.3149848	-2.7929624
H	1.2916280	1.9220340	-2.5659691
H	2.4985244	0.3839217	1.0514159
H	4.4744149	1.9901031	0.0302378
H	4.2617874	0.3223078	-0.5258369
C	-1.3431716	4.7790383	-4.4215358
H	-1.5698650	5.4528817	-3.5735216
O	-1.6867790	5.0884239	-5.5679330
C	-0.6137730	3.5142479	-4.0646593
H	-1.1991340	2.9324019	-3.3401908
H	-0.4323742	2.9125648	-4.9577711
H	0.3422558	3.7535439	-3.5803455
