31
-0.000467761 (energy)
C	2.4879944	0.1913469	0.1383000
O	3.3391290	1.0838498	0.1970286
O	2.6662146	-0.9373712	-0.6358154
H	3.5222995	-0.8892123	-1.1154064
N	0.0000000	0.0000000	0.0000000
C	0.3867849	-2.1186215	1.0452088
C	-0.4770744	-1.3926351	-0.0110158
C	-1.4651941	0.6687952	-1.7970966
H	-1.8647215	-0.3263764	-1.9438325
H	-1.8670660	1.4518084	-2.4273163
C	-0.5181729	0.9603917	-0.8746637
C	0.0021994	2.3723455	-0.7040392
H	1.0907643	2.4346774	-0.8194687
H	-0.4530207	3.0277629	-1.4491939
H	-0.2421878	2.7714480	0.2894212
C	1.1534488	0.1962449	0.8791846
C	1.0280986	-0.9836693	1.8769789
H	-0.2077541	-2.7929934	1.6687260
H	1.1648954	-2.7073236	0.5530463
H	-1.5489457	-1.4127096	0.2325511
H	-0.3562146	-1.8417777	-1.0062730
H	1.1093367	1.1600980	1.3913850
H	1.9880723	-1.2680952	2.3179206
H	0.3623870	-0.6722539	2.6895267
C	7.4851158	-2.0577176	0.3288911
H	8.0329861	-1.6973353	-0.5624817
O	8.0408846	-2.8126412	1.1346352
C	6.0707751	-1.5663573	0.4603585
H	5.4842294	-1.8644702	-0.4189251
H	5.6084666	-1.9694464	1.3638887
H	6.0540201	-0.4689436	0.4952276
