31
-0.000456451 (energy)
C	2.9345246	1.4093564	0.6458488
O	2.7699872	2.6305982	0.5687985
O	3.8673800	0.7483529	-0.1273761
H	4.3241660	1.3810090	-0.7242857
N	1.5304513	-0.6464627	0.8650354
C	3.5040715	-1.5450835	1.8789017
C	2.3210879	-1.8857210	0.9443241
C	-0.0372123	-1.5762706	-0.7165857
H	0.4808514	-2.5238352	-0.7890520
H	-0.9457798	-1.4733866	-1.2959884
C	0.3926536	-0.5520462	0.0573264
C	-0.3740619	0.7519644	0.1295559
H	0.2435604	1.6168300	-0.1401352
H	-1.2248415	0.7201078	-0.5539732
H	-0.7615833	0.9326928	1.1410577
C	2.1594893	0.4722487	1.5683971
C	3.0789766	-0.2409152	2.5928208
H	3.7093753	-2.3496946	2.5912776
H	4.4087894	-1.3718919	1.2909050
H	1.6905816	-2.6958344	1.3377882
H	2.6709365	-2.1932284	-0.0506223
H	1.4185811	1.1021100	2.0660293
H	3.9299565	0.3753565	2.8976478
H	2.4848573	-0.4618799	3.4864552
C	3.1960442	6.7653438	-0.4109500
H	2.3634219	7.1520092	-1.0288600
O	3.9557104	7.5508908	0.1668348
C	3.3099399	5.2681286	-0.3442238
H	3.4399383	4.8540237	-1.3530173
H	4.1543706	4.9765898	0.2838834
H	2.3839964	4.8365991	0.0585470
