31
-0.000431255 (energy)
C	-2.3516555	-1.4531027	-1.6876798
O	-3.3860315	-1.4727847	-2.3615639
O	-2.1753001	-2.2802937	-0.5969573
H	-2.9775110	-2.8288314	-0.4528314
N	-0.7622507	0.2426664	-0.7689762
C	0.7965459	-1.5705955	-0.8823589
C	0.3641984	-0.3540541	-0.0326400
C	-1.1607444	1.9246496	0.9149989
H	-0.3894562	1.5533230	1.5773818
H	-1.6991852	2.8052451	1.2412207
C	-1.4582757	1.3502157	-0.2742281
C	-2.5426821	1.9142772	-1.1683258
H	-3.3140040	1.1734841	-1.4101340
H	-3.0294023	2.7573719	-0.6740105
H	-2.1293935	2.2748449	-2.1197222
C	-1.1524981	-0.5430989	-1.9403863
C	0.1368403	-1.3416167	-2.2620684
H	1.8848784	-1.6506171	-0.9608241
H	0.4186470	-2.4935258	-0.4355456
H	1.1644326	0.3918458	0.0764221
H	0.0567127	-0.6584005	0.9771614
H	-1.4452619	0.0977565	-2.7751927
H	-0.0658773	-2.2736459	-2.7978896
H	0.7730200	-0.7173847	-2.8992460
C	3.1213035	4.1134522	-0.1947660
H	2.3147057	4.3813409	0.5139078
O	3.5723677	4.9636500	-0.9704701
C	3.5930557	2.6879512	-0.1278724
H	2.7560147	2.0037744	-0.3210335
H	4.3861022	2.5130631	-0.8579876
H	3.9627894	2.4595214	0.8805572
