31
-0.000388837 (energy)
C	0.4626165	-1.3934371	-2.8869314
O	0.8436262	-2.2983341	-3.6355526
O	0.8044866	-0.0739713	-3.1040872
H	1.3854772	0.0015066	-3.8927324
N	0.1727882	-1.0060437	-0.4350378
C	-1.4884441	0.5557384	-1.1642602
C	-0.3765450	0.3220609	-0.1164077
C	1.8649891	-0.8777993	1.2806680
H	1.5926076	0.1256767	1.5812743
H	2.6680998	-1.3494439	1.8323491
C	1.2483040	-1.5458155	0.2775658
C	1.6629592	-2.9528714	-0.0989556
H	1.9449077	-3.0383055	-1.1550754
H	2.5197374	-3.2606479	0.5037528
H	0.8509662	-3.6704272	0.0792368
C	-0.4085709	-1.5829205	-1.6479502
C	-1.7661160	-0.8429935	-1.7623309
H	-2.3871425	0.9926732	-0.7187749
H	-1.1319742	1.2323454	-1.9448895
H	-0.7597007	0.3204223	0.9140412
H	0.4020363	1.0946565	-0.1778932
H	-0.5476531	-2.6622664	-1.5532053
H	-2.1393767	-0.8011143	-2.7898521
H	-2.5010926	-1.3861319	-1.1580168
C	4.3670245	-1.2502796	5.6214203
H	4.2820132	-2.3386554	5.4403293
O	4.5242389	-0.8237155	6.7709154
C	4.2775789	-0.3826949	4.3973393
H	3.3200923	-0.5489616	3.8858495
H	4.3710033	0.6711424	4.6680339
H	5.0684481	-0.6523018	3.6848427
