31
-0.000374257 (energy)
C	-2.4182772	-0.0240979	0.6302469
O	-3.4924831	0.3712931	0.1674419
O	-2.1190437	0.0819470	1.9734652
H	-2.8557500	0.5213645	2.4524059
N	0.0000000	0.0000000	0.0000000
C	0.0853317	-1.9644879	1.3653304
C	0.8626831	-0.6867774	0.9753300
C	1.4860577	1.8907289	-0.2010311
H	2.1813520	1.5202203	0.5411341
H	1.7395406	2.8280217	-0.6795875
C	0.3520332	1.2376768	-0.5478328
C	-0.5843534	1.7958883	-1.5990671
H	-1.6059928	1.9270191	-1.2232474
H	-0.2232909	2.7689198	-1.9380308
H	-0.6428097	1.1350774	-2.4742147
C	-1.2923641	-0.6632739	-0.1782824
C	-0.9957179	-2.1173460	0.2702471
H	0.7371357	-2.8416555	1.4178313
H	-0.3873157	-1.8326135	2.3417850
H	1.8342063	-0.9077498	0.5106260
H	1.0523463	-0.0494305	1.8497955
H	-1.6239953	-0.6249261	-1.2184065
H	-1.8889571	-2.6414257	0.6228678
H	-0.6013481	-2.6653255	-0.5926414
C	3.4505991	5.5378415	-3.4409197
H	2.8763291	5.1687523	-4.3118790
O	3.6028493	6.7523947	-3.2686050
C	4.0007765	4.4745604	-2.5321754
H	4.6652575	3.8045401	-3.0939448
H	4.5502571	4.9265484	-1.7037102
H	3.1842983	3.8544666	-2.1389065
