31
0.000545798 (energy)
C	-1.5805818	0.5980421	1.1496897
O	-2.2017920	0.1809360	2.1318105
O	-1.6755598	1.9091123	0.7288623
H	-2.3030215	2.4049179	1.2995434
N	-0.9873285	-0.1880669	-1.1472516
C	0.8710694	1.2951113	-0.8694732
C	-0.1597581	0.7722693	-1.8956069
C	-2.4494680	-0.6090778	-3.0203600
H	-1.9576894	0.1091518	-3.6636485
H	-3.2731613	-1.1636980	-3.4513045
C	-2.0748566	-0.8378243	-1.7396955
C	-2.7920568	-1.8604983	-0.8833806
H	-3.1848956	-1.4285969	0.0446937
H	-3.6310319	-2.2854574	-1.4379826
H	-2.1237245	-2.6846360	-0.6003601
C	-0.6493207	-0.2380648	0.2758340
C	0.8099240	0.2849426	0.2997408
H	1.8764962	1.3627806	-1.2955786
H	0.5816336	2.2893922	-0.5203568
H	0.3122715	0.2610272	-2.7467565
H	-0.7735155	1.5887545	-2.2999915
H	-0.7167222	-1.2547335	0.6697245
H	1.0842119	0.7285113	1.2614529
H	1.4781046	-0.5638044	0.1165777
C	5.7862181	2.8806858	-2.4157389
H	5.7484626	3.8399724	-1.8653511
O	6.3251295	2.8244600	-3.5267859
C	5.1513047	1.7103111	-1.7184686
H	4.0931642	1.9213367	-1.5138867
H	5.2343429	0.8096979	-2.3304957
H	5.6344916	1.5421611	-0.7468363
