31
-0.00537251 (energy)
C	-1.1456118	-0.7059006	3.0338291
O	-1.0411605	0.3251805	3.7049494
O	-0.5461224	-1.8890833	3.4155526
H	-0.0376014	-1.7602225	4.2462206
N	-1.1176535	-1.3674746	0.6239754
C	-2.4588325	-3.1920369	1.4003984
C	-1.3330302	-2.8084419	0.4133098
C	0.7121611	-1.2639217	-0.9459584
H	0.6935657	-2.3258327	-1.1545710
H	1.4405324	-0.6746369	-1.4881818
C	-0.1246390	-0.6650517	-0.0662537
C	-0.0626325	0.8272886	0.1839248
H	0.0957123	1.0687428	1.2416628
H	0.7582486	1.2651526	-0.3874613
H	-0.9914750	1.3239469	-0.1268062
C	-1.9195610	-0.8301784	1.7240568
C	-3.0880886	-1.8442046	1.8230399
H	-3.1960363	-3.8588520	0.9433250
H	-2.0368713	-3.6977024	2.2724656
H	-1.6110304	-2.9859824	-0.6354186
H	-0.4139499	-3.3765229	0.6119260
H	-2.2809757	0.1768797	1.5037816
H	-3.5360557	-1.8767778	2.8206078
H	-3.8649790	-1.5376363	1.1139259
C	2.5315563	-2.4485037	2.2882720
H	2.4845907	-3.4125627	1.7470075
O	2.0224048	-2.3419144	3.4096174
C	3.2383562	-1.3358477	1.5661165
H	2.7483028	-1.1395269	0.6031249
H	3.2373182	-0.4264024	2.1706699
H	4.2725992	-1.6285847	1.3414838
