31
-0.00529296 (energy)
C	1.7848066	0.9941754	0.0613223
O	2.7329928	1.2113024	-0.6990984
O	1.5854394	1.7343063	1.2091378
H	2.3004756	2.3999797	1.3131110
N	0.5810654	-0.9760923	1.0178309
C	-1.2494800	0.5611111	1.1471761
C	-0.5494511	-0.6033785	1.8839549
C	1.4022707	-2.6403186	2.5604293
H	0.6493842	-2.4285581	3.3086535
H	2.1026647	-3.4341018	2.7865798
C	1.4886070	-1.9749684	1.3845827
C	2.5573991	-2.3156621	0.3671719
H	3.1743013	-1.4491466	0.1011537
H	3.2172429	-3.0880807	0.7672074
H	2.1167389	-2.6981858	-0.5631322
C	0.7266615	-0.0880475	-0.1363354
C	-0.6980767	0.5018919	-0.2963227
H	-2.3391355	0.4654025	1.1699480
H	-0.9816042	1.5135722	1.6111915
H	-1.2067640	-1.4740133	2.0202290
H	-0.1981850	-0.2960459	2.8784558
H	1.0355197	-0.6363643	-1.0292314
H	-0.6986225	1.4764363	-0.7934545
H	-1.2855441	-0.1902962	-0.9096278
C	1.6841557	5.6904653	1.7601200
H	2.6839139	6.1392379	1.6062711
O	1.4567632	4.5374833	1.3767961
C	0.6785659	6.5724841	2.4456200
H	0.5306425	7.4953658	1.8690310
H	-0.2748879	6.0514956	2.5555000
H	1.0512363	6.8726445	3.4339691
