31
-0.00433936 (energy)
C	0.5880420	-0.3665804	1.9228898
O	1.5295323	-0.9216898	2.4972507
O	-0.2594915	0.5009984	2.5816885
H	-0.0073304	0.5692956	3.5287674
N	-1.1697880	-0.9478104	0.2441813
C	-1.0895900	1.3965220	-0.2336211
C	-2.0420867	0.1864382	-0.1018375
C	-3.0152847	-2.4868065	0.4661489
H	-3.7671152	-1.7321362	0.2744626
H	-3.3703112	-3.4963451	0.6291689
C	-1.6880387	-2.2218523	0.4974110
C	-0.6756698	-3.3165255	0.7625780
H	-0.0305050	-3.0919957	1.6202094
H	-1.1914578	-4.2568802	0.9669029
H	-0.0201140	-3.4737042	-0.1043205
C	0.2226940	-0.5481551	0.4520066
C	0.3220514	0.7757865	-0.3484995
H	-1.3321173	2.0173267	-1.1012673
H	-1.1516696	2.0218412	0.6604549
H	-2.5755889	-0.0360180	-1.0369976
H	-2.7979006	0.3532951	0.6777633
H	0.9179411	-1.2995931	0.0708500
H	1.1102607	1.4367514	0.0239635
H	0.5544559	0.5266129	-1.3897901
C	4.3001792	-1.4035347	-0.2649333
H	4.8328279	-0.7492930	0.4511926
O	3.1238105	-1.1680201	-0.5627614
C	5.1032936	-2.5492253	-0.8140037
H	5.4556276	-3.1901764	0.0051967
H	4.5020321	-3.1391223	-1.5090453
H	5.9972711	-2.1716362	-1.3278558
