31
-0.00364237 (energy)
C	1.1369722	-0.4172251	-1.6464802
O	2.2942065	-0.2186045	-2.0283171
O	0.3224244	-1.3575692	-2.2442146
H	0.7925005	-1.7892238	-2.9911489
N	-0.8268924	0.9275501	-0.8844619
C	-1.3921092	-1.0827336	0.2859700
C	-1.9866032	0.1025956	-0.5080648
C	-2.1645934	2.4897864	-2.1468449
H	-3.0872167	1.9471707	-1.9860518
H	-2.2335542	3.4082558	-2.7155679
C	-0.9674485	2.0778792	-1.6673276
C	0.2940013	2.8787150	-1.9141471
H	1.0755976	2.2883547	-2.4068588
H	0.0695863	3.7371159	-2.5504165
H	0.7174477	3.2578396	-0.9745040
C	0.4482007	0.3200421	-0.5010647
C	0.0407677	-0.6316877	0.6529337
H	-1.9838175	-1.3190361	1.1753913
H	-1.3536688	-1.9747078	-0.3442318
H	-2.6840396	0.7057142	0.0906557
H	-2.5292614	-0.2425303	-1.3987294
H	1.1668561	1.0712573	-0.1656275
H	0.7337178	-1.4695063	0.7744141
H	0.0411156	-0.0554354	1.5847698
C	3.8804717	2.6665172	1.3363585
H	4.9154822	2.2820155	1.2622337
O	2.9271406	1.9439732	1.0247463
C	3.7503320	4.0809964	1.8276733
H	4.2991874	4.7630139	1.1646071
H	2.6997210	4.3760326	1.8694707
H	4.2007498	4.1774093	2.8244890
