31
-0.00315399 (energy)
C	0.2007426	-2.1452025	-1.2663590
O	-0.4415653	-3.1894560	-1.4127009
O	1.5755157	-2.1450162	-1.1438016
H	1.9192526	-3.0650635	-1.1675956
N	0.0000000	0.0000000	0.0000000
C	1.3594054	0.8496972	-1.7778225
C	1.1103158	0.9324702	-0.2546605
C	0.0600745	0.3522793	2.3866142
H	0.9117011	1.0189187	2.3436720
H	-0.3671946	0.1717875	3.3646998
C	-0.4783799	-0.2362152	1.2927672
C	-1.6762454	-1.1558471	1.4063847
H	-1.4835410	-2.1492538	0.9842580
H	-1.9473615	-1.2834494	2.4562736
H	-2.5482485	-0.7436893	0.8813055
C	-0.3999907	-0.7437690	-1.1952978
C	0.0932366	0.1688158	-2.3474347
H	1.5242932	1.8362888	-2.2210795
H	2.2389511	0.2338111	-1.9811292
H	0.8213750	1.9414219	0.0727011
H	2.0044310	0.6440492	0.3147643
H	-1.4819001	-0.8893630	-1.2350762
H	0.2853908	-0.3839885	-3.2717515
H	-0.6880611	0.9089154	-2.5528902
C	3.5145378	-0.2792393	2.8589201
H	2.9402677	-1.2180567	2.7430809
O	3.6667881	0.4772663	1.8932436
C	4.0647153	-0.0238844	4.2341207
H	4.7291962	-0.8454012	4.5334904
H	4.6141960	0.9195815	4.2569203
H	3.2482371	0.0066496	4.9677721
