31
-0.00305612 (energy)
C	-3.1403290	0.0541823	0.7908554
O	-4.3440753	0.1893525	0.5517641
O	-2.5282666	0.7020929	1.8447117
H	-3.1763344	1.2686157	2.3182814
N	-0.9950477	-0.0852678	-0.4835773
C	-0.2680651	-1.3311140	1.4269161
C	0.1814393	-0.2892038	0.3774932
C	0.0866258	1.6203178	-1.8044092
H	0.9959264	1.6057659	-1.2174844
H	0.0647974	2.2953207	-2.6503892
C	-0.9859039	0.8404941	-1.5318011
C	-2.2326559	0.8935103	-2.3898875
H	-3.1324410	1.1257311	-1.8079569
H	-2.1215760	1.6613625	-3.1580782
H	-2.4114540	-0.0648713	-2.8953651
C	-2.1743007	-0.8127554	-0.0123596
C	-1.5564648	-1.9518205	0.8387061
H	0.5006586	-2.0879274	1.6094678
H	-0.4905699	-0.8361448	2.3754660
H	1.0243136	-0.6412315	-0.2342873
H	0.4889253	0.6524072	0.8525661
H	-2.7619231	-1.2080294	-0.8440844
H	-2.2403069	-2.3235675	1.6074983
H	-1.3167576	-2.7848748	0.1686715
C	3.1979786	-1.0926496	-2.4553548
H	3.9559851	-0.4508447	-2.9433052
O	3.0547196	-1.0588715	-1.2280211
C	2.3985778	-1.9662785	-3.3809945
H	3.0671987	-2.6310024	-3.9441420
H	1.6781151	-2.5623793	-2.8169252
H	1.8695035	-1.3493513	-4.1194352
