31
-0.00276679 (energy)
C	1.7737574	0.9535249	-0.3496495
O	2.9345545	0.6425787	-0.6330279
O	1.3040915	2.2417990	-0.5070831
H	2.0204584	2.8269155	-0.8382407
N	0.1047173	0.4711484	1.4468678
C	-1.4771849	0.9649968	-0.2806507
C	-1.1923884	1.1324420	1.2292408
C	0.1859388	1.0772464	3.7813239
H	-0.7372465	1.6411405	3.7456519
H	0.6785555	1.0114236	4.7429806
C	0.7228094	0.4622433	2.7013696
C	2.0142814	-0.3216929	2.8065246
H	2.7808394	0.0379887	2.1099611
H	2.4154070	-0.2412103	3.8187863
H	1.8544434	-1.3866827	2.5915360
C	0.7163562	0.0014591	0.2029982
C	-0.5020311	-0.1416982	-0.7449162
H	-2.5196407	0.6952084	-0.4743721
H	-1.2631789	1.8976934	-0.8084087
H	-1.9557031	0.6541264	1.8594795
H	-1.1459816	2.1924439	1.5140488
H	1.2294184	-0.9528127	0.3424268
H	-0.2287688	-0.0540449	-1.8006254
H	-0.9379280	-1.1349190	-0.5903465
C	2.0867628	-4.0042535	1.0151433
H	2.9242857	-3.8871639	1.7288857
O	1.8847591	-3.1444622	0.1502932
C	1.2589563	-5.2467218	1.1885992
H	0.8266850	-5.2745817	2.1977634
H	0.4592616	-5.2800896	0.4456647
H	1.8916890	-6.1387843	1.0901753
