31
-0.00997618 (energy)
C	0.1340742	0.4496516	-0.0944762
O	-1.0892030	0.3953943	-0.0952867
O	0.8727341	-0.6980907	0.1590570
H	1.8391183	-0.5499145	0.1128302
N	0.4905562	2.4814010	-1.5058128
C	-0.2692558	2.5111583	-3.7997356
H	-0.9579489	3.3311671	-3.6407865
H	-0.2007060	2.1224399	-4.8076805
C	0.4705900	1.9654257	-2.8088889
C	1.3886292	0.7896202	-3.0700836
H	1.1013882	-0.1024208	-2.4995072
H	1.3566916	0.5209780	-4.1278550
H	2.4292476	1.0306954	-2.8140456
C	0.4815397	4.1016847	0.1937814
C	-0.1670867	3.7472478	-1.1520619
C	0.9409020	1.7396502	-0.3247752
C	0.6855548	2.7252308	0.8623997
H	1.4447455	4.5963993	0.0247036
H	-0.1402422	4.7647726	0.8023490
H	0.0319973	4.4923473	-1.9293813
H	-1.2581633	3.6303536	-1.0614398
H	2.0112290	1.4940311	-0.4056596
H	-0.2296302	2.4263366	1.3833898
H	1.5086238	2.7131044	1.5822615
C	3.7828574	-2.8373763	1.3141376
H	3.8754862	-2.4390061	2.3423905
O	3.5369509	-2.0739234	0.3735624
C	3.9749551	-4.3217110	1.1765614
H	3.2415512	-4.8562667	1.7949592
H	3.8668842	-4.6261079	0.1333740
H	4.9689529	-4.6094549	1.5439646
