31
-0.00359708 (energy)
C	-2.2883930	-0.4209444	-1.3671484
O	-2.0616137	-1.5341756	-1.8239186
O	-3.3636816	0.3134211	-1.8484714
H	-3.4691284	1.1771927	-1.4003966
N	-1.1553489	-0.6111683	0.8525322
C	-1.9027470	-2.2567990	2.4567693
H	-0.9582873	-2.7857996	2.4682449
H	-2.6764621	-2.6292087	3.1158823
C	-2.1430655	-1.1917273	1.6599994
C	-3.4954030	-0.5101673	1.6459717
H	-3.9836804	-0.5658334	0.6650087
H	-4.1609983	-0.9902014	2.3661238
H	-3.4110425	0.5504966	1.9187992
C	0.9773958	0.1490244	0.2300144
C	0.2560712	-1.0143429	0.9256460
C	-1.4253791	0.2631174	-0.2922664
C	-0.0087624	0.5625735	-0.8834338
H	1.1281192	0.9714071	0.9385794
H	1.9533574	-0.1374584	-0.1725763
H	0.5492755	-1.1303599	1.9742662
H	0.4354581	-1.9716867	0.4121892
H	-1.9162379	1.1923578	0.0364293
H	0.1475500	-0.0622341	-1.7685970
H	0.0918757	1.6098133	-1.1816810
C	3.7507032	-1.9636884	-1.8396751
H	3.2709534	-1.3892644	-2.6548193
O	3.6884574	-1.5559417	-0.6743939
C	4.4506865	-3.2245799	-2.2630591
H	5.2343993	-2.9932164	-2.9967567
H	4.8929538	-3.7248990	-1.3989658
H	3.7422906	-3.9014369	-2.7588950
