31
-0.00332873 (energy)
C	-0.4253111	-0.8193534	2.3226550
O	-1.5757019	-1.2218992	2.2047161
O	0.3780653	-1.3219693	3.3371369
H	1.2840090	-0.9516079	3.3276511
N	0.0000000	0.0000000	0.0000000
C	-0.0785519	-1.5398705	-1.8608895
H	-0.9007543	-1.0298876	-2.3465624
H	0.3294145	-2.4017678	-2.3731885
C	0.4265975	-1.1564806	-0.6672358
C	1.5491004	-1.9276580	-0.0048084
H	1.2523358	-2.3546021	0.9613446
H	1.8575906	-2.7574146	-0.6438754
H	2.4261125	-1.2887658	0.1661473
C	-0.7340366	2.2148759	0.2636963
C	-0.9155963	0.9701536	-0.6168366
C	0.2072259	0.2605703	1.4272407
C	-0.5191554	1.6235445	1.6734662
H	0.1506524	2.7748639	-0.0600846
H	-1.5955075	2.8881454	0.2286380
H	-0.6217435	1.1392858	-1.6580272
H	-1.9569367	0.6125620	-0.6088890
H	1.2814323	0.3434012	1.6545964
H	-1.4872772	1.4311946	2.1468304
H	0.0597788	2.2772026	2.3317646
C	3.1361648	3.1876631	0.9501170
H	4.0222790	3.4055639	0.3240947
O	2.6263560	2.0617053	0.9320573
C	2.6360073	4.3342368	1.7833571
H	2.3721562	5.1829127	1.1382380
H	1.7637289	4.0311951	2.3663433
H	3.4280805	4.6838735	2.4587737
