31
-0.00317971 (energy)
C	-0.4253111	0.0244545	2.4628172
O	-1.5757019	-0.3941523	2.4896696
O	0.3780653	-0.1008767	3.5880231
H	1.2840090	0.2439048	3.4524383
N	0.0000000	0.0000000	0.0000000
C	-0.0785519	-2.0834666	-1.2219974
H	-0.9007543	-1.7703494	-1.8528051
H	0.3294145	-3.0686018	-1.4086147
C	0.4265975	-1.3149443	-0.2314569
C	1.5491004	-1.8130506	0.6547794
H	1.2523358	-1.8838030	1.7086897
H	1.8575906	-2.8113406	0.3380463
H	2.4261125	-1.1542180	0.5969112
C	-0.7340366	2.1714920	-0.5097387
C	-0.9155963	0.7006757	-0.9114489
C	0.2072259	0.7330010	1.2520473
C	-0.5191554	2.0979919	1.0172589
H	0.1506524	2.5869690	-1.0055203
H	-1.5955075	2.7921677	-0.7729544
H	-0.6217435	0.5034997	-1.9476946
H	-1.9569367	0.3673677	-0.7816770
H	1.2814323	0.8885969	1.4373619
H	-1.4872772	2.0791422	1.5278633
H	0.0597788	2.9373810	1.4122928
C	4.5865316	-1.4784715	2.2072700
H	4.2527060	-2.4306141	1.7527728
O	4.3220705	-0.4032148	1.6578197
C	5.3542009	-1.6102975	3.4927208
H	6.2520678	-2.2227232	3.3351877
H	5.6423487	-0.6262729	3.8685441
H	4.7449315	-2.1288068	4.2448859
