31
-0.00290389 (energy)
C	1.2572611	1.8828526	1.0588279
O	0.3932710	2.3317520	1.8013656
O	2.5959516	2.1194484	1.3401466
H	3.2027925	1.6975782	0.6984604
N	0.0000000	0.0000000	0.0000000
C	-0.8456591	-1.8086959	1.3615289
H	-1.8809780	-1.6129282	1.1129988
H	-0.6530940	-2.6521709	2.0120845
C	0.1780150	-1.0484981	0.9130163
C	1.6075638	-1.3344738	1.3230718
H	2.0576694	-0.5054712	1.8833945
H	1.6402889	-2.2154714	1.9671535
H	2.2421971	-1.5316548	0.4484750
C	-0.8899583	1.1561947	-1.8398937
C	-1.2872555	0.2553553	-0.6616412
C	0.9635447	1.0817696	-0.2218366
C	0.2561854	2.0128582	-1.2604282
H	-0.5309295	0.5425446	-2.6739362
H	-1.7190751	1.7714669	-2.2013607
H	-1.7282371	-0.6942717	-0.9822294
H	-2.0015528	0.7544772	0.0113979
H	1.9055525	0.6845289	-0.6308503
H	-0.1572288	2.8811002	-0.7373827
H	0.9535976	2.3723482	-2.0221195
C	3.1278333	1.3849300	-3.4865030
H	3.9344310	2.0363190	-3.0996242
O	2.6767689	0.4733753	-2.7839212
C	2.6560811	1.6983429	-4.8787315
H	3.4931222	1.6269223	-5.5860562
H	1.8630347	1.0096887	-5.1777458
H	2.2863476	2.7311186	-4.9285790
