31
-0.00272926 (energy)
C	1.3642359	-0.1119919	2.7931893
O	1.0817556	0.9300483	3.3708645
O	0.9431253	-1.3255566	3.3196268
H	1.2014174	-2.0924439	2.7690266
N	1.7453338	0.7511962	0.4787506
C	-0.0547451	1.8231701	-0.7257697
H	0.4608127	2.7718926	-0.8038928
H	-1.0286496	1.7592479	-1.1939341
C	0.4555782	0.7570955	-0.0700044
C	-0.3218411	-0.5369464	0.0508757
H	-0.5511317	-0.7934638	1.0927138
H	-1.2732916	-0.4496466	-0.4775083
H	0.2320387	-1.3781680	-0.3874425
C	4.0428275	1.2079497	0.6428239
C	2.7015718	1.8434331	0.2493396
C	2.2067915	-0.1850130	1.5075482
C	3.6654249	0.2842538	1.8208099
H	4.4388800	0.6237479	-0.1955948
H	4.7954409	1.9488812	0.9278614
H	2.6663713	2.1451942	-0.8026748
H	2.4709857	2.7257259	0.8663600
H	2.2021221	-1.2169270	1.1233572
H	3.6633697	0.8555546	2.7545889
H	4.3461673	-0.5632453	1.9396613
C	2.8607823	3.4001384	-4.0760113
H	2.7419677	2.6845016	-4.9116726
O	2.9813255	2.9857847	-2.9176536
C	2.8616209	4.8522070	-4.4640503
H	1.9229808	5.1073296	-4.9738681
H	2.9833623	5.4836955	-3.5814530
H	3.6734024	5.0523271	-5.1759324
