31
-0.00227552 (energy)
C	2.7075942	1.4867305	0.3662709
O	3.0692195	1.8497341	-0.7458474
O	2.4361872	2.4341902	1.3439561
H	2.1328780	2.0393132	2.1866108
N	1.7913273	-0.7737485	-0.1792983
C	-0.0795013	-0.9890183	-1.6938743
H	0.4768240	-1.5685640	-2.4195509
H	-1.1223904	-0.8032619	-1.9166539
C	0.4731536	-0.4931523	-0.5644220
C	-0.3338603	0.3500245	0.4006266
H	0.0633924	1.3676356	0.5029003
H	-1.3626770	0.4387034	0.0460267
H	-0.3592573	-0.1021398	1.4013573
C	3.7508292	-2.0333189	0.1171062
C	2.6254029	-1.7536594	-0.8892944
C	2.5604193	0.0141120	0.7879808
C	3.9701811	-0.6630124	0.7934512
H	3.4193644	-2.7779131	0.8497766
H	4.6624248	-2.4058442	-0.3592037
H	2.0293382	-2.6431120	-1.1186715
H	3.0154270	-1.3494773	-1.8363123
H	2.0979197	-0.0377972	1.7859139
H	4.6582289	-0.0588549	0.1935212
H	4.3771294	-0.7416481	1.8053801
C	1.8581973	-5.6253031	-1.4473456
H	1.9452962	-5.2405505	-2.4812518
O	1.9385596	-4.8493072	-0.4885003
C	1.6435012	-7.1079255	-1.3256310
H	2.4722128	-7.6497025	-1.8007749
H	1.5691355	-7.3984996	-0.2755771
H	0.7277177	-7.4015956	-1.8556420
