31
-0.00212325 (energy)
C	0.3973493	2.6688730	1.5475203
O	-0.1756521	3.5416217	0.9077307
O	-0.0255988	2.3714296	2.8358728
H	0.4837846	1.6444577	3.2482218
N	1.3983365	1.3361009	-0.3149242
C	-0.0314562	0.2680814	-1.9444358
H	0.3671386	0.8335270	-2.7771249
H	-0.7886844	-0.4699300	-2.1761651
C	0.3620391	0.4598999	-0.6656317
C	-0.2559721	-0.3247498	0.4727551
H	-0.7762682	0.3190854	1.1928733
H	-0.9904359	-1.0314498	0.0813385
H	0.5037817	-0.8968452	1.0223372
C	3.4511122	2.4619856	-0.4952474
C	2.2428702	1.9962443	-1.3203970
C	1.6108315	1.8759918	1.0308913
C	2.8259244	2.8462054	0.8629916
H	4.1610811	1.6358514	-0.3746581
H	3.9800557	3.3018412	-0.9551543
H	2.5126040	1.2767799	-2.1005558
H	1.7246748	2.8417216	-1.7989016
H	1.8506313	1.0681456	1.7396589
H	2.4570529	3.8761214	0.8237627
H	3.5265535	2.7652569	1.6986690
C	-3.8465213	-1.1201359	0.2135254
H	-3.7322559	-1.4827322	1.2527801
O	-3.0977130	-1.5408283	-0.6754719
C	-4.9445160	-0.1169988	-0.0037337
H	-4.7794833	0.7661453	0.6278259
H	-4.9850843	0.1842128	-1.0526391
H	-5.9108837	-0.5442598	0.2952562
