31
-0.00201056 (energy)
C	-2.7075941	1.5223418	0.1643096
O	-3.0692194	1.4830869	1.3335136
O	-2.4361871	2.7470507	-0.4303637
H	-2.1328780	2.6641924	-1.3572561
N	-1.7913273	-0.7884093	-0.0961521
C	0.0795013	-1.5087122	1.2534572
H	-0.4768241	-2.3015029	1.7371539
H	1.1223904	-1.4103533	1.5263339
C	-0.4731536	-0.6564553	0.3617153
C	0.3338603	0.4659377	-0.2567505
H	-0.0633924	1.4571591	-0.0048129
H	1.3626770	0.4279884	0.1067943
H	0.3592573	0.3833122	-1.3517790
C	-3.7508292	-1.8706421	-0.8054795
C	-2.6254030	-1.9520572	0.2358768
C	-2.5604194	0.2827662	-0.7356331
C	-3.9701812	-0.3516515	-0.9723636
H	-3.4193645	-2.3197438	-1.7486306
H	-4.6624249	-2.3836088	-0.4853056
H	-2.0293383	-2.8663210	0.1472102
H	-3.0154270	-1.8961494	1.2640210
H	-2.0979198	0.5753007	-1.6911375
H	-4.6582289	0.0108828	-0.2019798
H	-4.3771295	-0.0794450	-1.9501608
C	3.8446913	-2.5428093	1.1218951
H	4.3086304	-2.8426452	0.1630198
O	3.4075990	-1.3956681	1.2669107
C	3.7987568	-3.6101964	2.1790861
H	4.8147985	-3.9577277	2.4091472
H	3.3268259	-3.2288761	3.0870800
H	3.2413166	-4.4819531	1.8115077
