31
-0.00194274 (energy)
C	3.1994200	-1.7371640	-2.3474077
O	2.3224509	-2.0030661	-3.1595485
O	4.3699430	-1.1256824	-2.7753986
H	4.9928690	-0.9364803	-2.0445380
N	1.8485727	-1.6488581	-0.2463676
C	0.0780722	-0.0207142	-0.0123660
H	-0.6989071	-0.7677359	0.0888225
H	-0.2306857	1.0143762	0.0584174
C	1.3753157	-0.3295823	-0.2331212
C	2.4209219	0.7512567	-0.4120965
H	2.8921974	0.7199169	-1.4024092
H	1.9604536	1.7353250	-0.3041731
H	3.2163750	0.6661192	0.3406089
C	2.0318021	-3.9018053	0.3897745
C	1.0040943	-2.7901412	0.1335417
C	3.1167007	-2.0711618	-0.8475050
C	3.1244734	-3.6244049	-0.6649369
H	2.4388501	-3.8070205	1.4028999
H	1.6066248	-4.9043013	0.2854726
H	0.4232548	-2.5341120	1.0257904
H	0.2991536	-3.0622589	-0.6672925
H	3.9676927	-1.6114181	-0.3212737
H	2.8522569	-4.0963656	-1.6144016
H	4.1113754	-3.9920702	-0.3705947
C	4.6086833	0.7396775	3.2775552
H	3.7563158	0.4417373	3.9173084
O	4.4050453	1.3092955	2.1995575
C	5.9703796	0.4025905	3.8172159
H	6.0545771	-0.6802111	3.9799991
H	6.7481652	0.7312591	3.1246819
H	6.1188862	0.8823205	4.7937496
