31
-0.00939204 (energy)
C	1.3642359	-2.3629768	-1.4935827
O	1.0817556	-3.3842784	-0.8799871
O	0.9431253	-2.2121027	-2.8077793
H	1.2014174	-1.3518252	-3.1966230
N	1.7453338	-0.7902083	0.4111797
C	-0.0547451	-0.2830502	1.9417964
H	0.4608127	-0.6897549	2.8024757
H	-1.0286496	0.1543532	2.1205204
C	0.4555782	-0.3179222	0.6906662
C	-0.3218411	0.2244136	-0.4904470
H	-0.5511317	-0.5495859	-1.2335167
H	-1.2732916	0.6383576	-0.1506511
H	0.2320387	1.0246191	-0.9998071
C	4.0428275	-1.1606767	0.7247031
C	2.7015718	-1.1376511	1.4717900
C	2.2067915	-1.2130685	-0.9140001
C	3.6654249	-1.7189944	-0.6642341
H	4.4388800	-0.1424839	0.6379789
H	4.7954409	-1.7779922	1.2238497
H	2.6663713	-0.3774604	2.2591300
H	2.4709857	-2.1131529	1.9273677
H	2.2021221	-0.3643923	-1.6155683
H	3.6633697	-2.8133212	-0.6363626
H	4.3461673	-1.3981732	-1.4576155
C	2.6716656	1.8569085	-4.2298730
H	3.4782633	2.6013343	-4.0891141
O	2.2206012	1.2406244	-3.2578920
C	2.1999134	1.6752501	-5.6453335
H	3.0369545	1.3662174	-6.2855739
H	1.4068670	0.9258579	-5.6907814
H	1.8301798	2.6286930	-6.0454049
