31
-0.00193732 (energy)
C	-2.7075941	-1.3743362	-0.6750720
O	-3.0692194	-0.9375574	-1.7603384
O	-2.4361871	-2.7285764	-0.5351369
H	-2.1328780	-2.9677308	0.3641963
N	-1.7913273	0.7079765	0.3600053
C	0.0795013	1.8464333	-0.6618546
H	-0.4768241	2.7568469	-0.8452305
H	1.1223904	1.8473355	-0.9519155
C	-0.4731536	0.7405801	-0.1153803
C	0.3338603	-0.5256521	0.0819065
H	-0.0633924	-1.3709278	-0.4938550
H	1.3626770	-0.3656517	-0.2467344
H	0.3592573	-0.8225313	1.1391563
C	-3.7508292	1.4823384	1.3967004
C	-2.6254030	1.9150084	0.4459910
C	-2.5604194	-0.5173146	0.5945573
C	-3.9701812	-0.0021236	1.0339948
H	-3.4193645	1.5817794	2.4365743
H	-4.6624249	2.0738754	1.2712802
H	-2.0293383	2.7438096	0.8420070
H	-3.0154270	2.2141183	-0.5392701
H	-2.0979198	-1.1190088	1.3923851
H	-4.6582289	-0.0793076	0.1860768
H	-4.3771295	-0.5923403	1.8597235
C	3.9516551	3.3946429	-1.2110184
H	4.9930630	3.7626280	-1.2791317
O	3.7263008	2.2377075	-0.8385560
C	2.8895709	4.3862433	-1.5954451
H	3.0438371	4.7229699	-2.6293039
H	1.8973586	3.9404343	-1.4987709
H	2.9572292	5.2780331	-0.9583058
