31
-0.00172031 (energy)
C	-3.1930185	1.1643326	-2.6857611
O	-3.6674152	1.7347163	-1.7116144
O	-3.0855086	1.8407244	-3.8932982
H	-2.6724355	1.3023815	-4.5986697
N	-1.8485728	-0.6110685	-1.5511367
C	-0.0373126	0.0003522	-0.0726974
H	-0.4896774	-0.4607904	0.7960322
H	0.9339527	0.4565972	0.0695633
C	-0.6347012	0.0370977	-1.2846172
C	0.0174167	0.7325142	-2.4613396
H	-0.5787819	1.5744802	-2.8347594
H	0.9897990	1.1310839	-2.1652251
H	0.1773117	0.0380834	-3.2972576
C	-3.4886192	-2.2884573	-1.4480082
C	-2.4882264	-1.5107210	-0.5808426
C	-2.7249528	-0.3016201	-2.6842982
C	-3.9611175	-1.2363502	-2.4742216
H	-2.9795966	-3.1184572	-1.9510899
H	-4.3211440	-2.6993770	-0.8694753
H	-1.7296587	-2.1554165	-0.1247986
H	-2.9922292	-0.9532371	0.2238422
H	-2.2215067	-0.5274780	-3.6371892
H	-4.7838881	-0.6500699	-2.0527291
H	-4.3011261	-1.6750908	-3.4163954
C	4.0341354	1.3068982	1.1443829
H	4.6381183	0.5895570	1.7319278
O	3.1714404	0.8947840	0.3608452
C	4.3469319	2.7583307	1.3780066
H	5.4009661	2.9597423	1.1445710
H	3.7066535	3.3916178	0.7602949
H	4.2033221	3.0097838	2.4372331
