31
-0.00423136 (energy)
C	0.1779650	-0.4391148	0.0677853
O	1.0851067	0.3752221	0.1831150
O	-1.1082795	0.0003154	-0.2145019
H	-1.7512304	-0.7315864	-0.3089761
N	1.4894937	-2.4887127	-0.5031763
C	2.8253610	-2.5500664	-2.5161283
H	3.7583199	-2.6849927	-1.9838126
H	2.8804081	-2.5343681	-3.5970895
C	1.6363611	-2.3897329	-1.8935969
C	0.3625125	-2.1598328	-2.6797222
H	-0.0974008	-1.1883326	-2.4595652
H	0.5773941	-2.1807009	-3.7499836
H	-0.3827370	-2.9389271	-2.4695444
C	1.8521256	-3.2967718	1.6715787
C	2.5842434	-2.9291007	0.3729420
C	0.3520199	-1.9568954	0.2525876
C	0.7147200	-2.2554672	1.7443179
H	1.4440008	-4.3110203	1.5952281
H	2.5019697	-3.2559256	2.5506049
H	3.0963367	-3.7829288	-0.0828772
H	3.3258596	-2.1313497	0.5339500
H	-0.5786313	-2.4709852	-0.0338928
H	1.0819638	-1.3367346	2.2127136
H	-0.1538970	-2.6042339	2.3097000
C	1.1214579	4.7613083	0.4285126
H	0.9673600	5.0909891	-0.6165459
O	0.6914526	5.4454441	1.3639622
C	1.8665285	3.4665317	0.5943478
H	2.8597032	3.5404744	0.1315483
H	1.9722395	3.2191509	1.6527450
H	1.3354733	2.6563946	0.0771712
