31
-0.00149459 (energy)
C	2.7840391	0.6966273	-1.1997604
O	3.6205615	0.4046135	-0.3545919
O	2.7893301	0.0453076	-2.4257150
H	2.0663413	0.3367087	-3.0176306
N	0.9991388	1.6659787	0.2567577
C	-0.0670579	0.2975012	1.9392483
H	0.2697241	0.9140259	2.7629307
H	-0.6909523	-0.5506909	2.1904055
C	0.2693352	0.5365061	0.6521239
C	-0.1896625	-0.3795449	-0.4630932
H	0.6482546	-0.8580717	-0.9853087
H	-0.8144507	-1.1768754	-0.0556959
H	-0.7824529	0.1660371	-1.2097519
C	1.7037762	3.9059000	0.2406460
C	1.3207789	2.7582163	1.1860406
C	1.7159986	1.7890867	-1.0155678
C	2.4172455	3.1839179	-0.9225397
H	0.7998902	4.4133777	-0.1150950
H	2.3478083	4.6506519	0.7173222
H	0.4427553	2.9872035	1.7989619
H	2.1489165	2.4911489	1.8607167
H	1.0120775	1.7610859	-1.8618432
H	3.4734511	3.0362188	-0.6756656
H	2.3599841	3.7292534	-1.8686480
C	0.3791217	-4.3508718	2.9128403
H	0.4168772	-3.9754240	3.9531269
O	-0.1597897	-5.4352759	2.6645374
C	1.0140353	-3.4609612	1.8813259
H	2.0721759	-3.2961318	2.1246708
H	0.9309971	-3.9073005	0.8881176
H	0.5308485	-2.4748912	1.8844526
