31
-0.00134591 (energy)
C	1.8668783	-1.9456619	0.1104392
O	2.3468711	-1.8438617	-1.0114321
O	2.1720026	-3.0526379	0.8906400
H	1.7560065	-3.0238248	1.7761391
N	1.3670904	0.4537599	0.6002787
C	3.1604146	2.0714693	0.6856369
H	2.7730665	2.6574915	-0.1380845
H	4.0624278	2.4364367	1.1598992
C	2.5813606	0.9281595	1.1151857
C	3.1843028	0.1177826	2.2435861
H	3.4840888	-0.8882951	1.9246221
H	4.0784332	0.6165632	2.6228190
H	2.4787078	0.0085407	3.0783084
C	-0.8173903	0.5445864	-0.2563515
C	0.5492593	1.2402114	-0.3338778
C	0.8927221	-0.9270015	0.7280601
C	-0.4480171	-0.9435968	-0.0769857
H	-1.3743485	0.9125963	0.6128214
H	-1.4286071	0.7105032	-1.1482812
H	0.5151390	2.2829311	-0.0013052
H	0.9605494	1.2199615	-1.3550317
H	0.7172005	-1.1807377	1.7850753
H	-0.2710431	-1.4026007	-1.0549058
H	-1.2213264	-1.5210414	0.4371552
C	4.3719586	-6.3450965	2.9083774
H	4.4011561	-7.0573173	2.0619308
O	4.5278632	-6.7510130	4.0655022
C	4.1363413	-4.9081568	2.5358631
H	3.1830805	-4.8085111	1.9997554
H	4.1230217	-4.2790849	3.4284256
H	4.9223349	-4.5616796	1.8517718
