31
-0.00133539 (energy)
C	1.5578012	2.4031343	1.2139972
O	2.4778026	1.9361385	1.8734394
O	1.8373144	3.2058138	0.1163688
H	1.0329406	3.5067933	-0.3530835
N	-0.2605578	0.7834259	1.7770879
C	-0.0232374	-1.5518128	1.2020919
H	-0.0635828	-1.8875272	2.2305108
H	0.0637901	-2.3190203	0.4434268
C	-0.0605082	-0.2476466	0.8489144
C	0.0432805	0.1770311	-0.6010559
H	0.9297912	0.7934591	-0.7957797
H	0.1148661	-0.7038754	-1.2421083
H	-0.8395300	0.7512225	-0.9133206
C	-1.1404925	1.8763279	3.6599849
C	-0.6018523	0.5201638	3.1821549
C	0.0686430	2.1915777	1.5391996
C	-0.2667461	2.8940231	2.8956804
H	-2.1938614	1.9802368	3.3758863
H	-1.0653737	2.0041395	4.7438088
H	-1.3509978	-0.2768333	3.2332413
H	0.2769042	0.2016808	3.7641175
H	-0.5473271	2.6016774	0.7238040
H	0.6634070	3.0710940	3.4450376
H	-0.7614239	3.8569154	2.7410105
C	3.8332793	1.5565164	-2.6121119
H	4.8270260	1.0701306	-2.5902190
O	2.9218124	1.1367381	-1.8902903
C	3.7034309	2.7187143	-3.5563118
H	3.9263001	2.3980230	-4.5827295
H	2.6951004	3.1357922	-3.5128119
H	4.4357776	3.4961330	-3.3011610
