31
-0.0013024 (energy)
C	0.4253113	1.6018013	-1.8709085
O	1.5757020	1.2983902	-2.1605539
O	-0.3780651	2.2290604	-2.8134277
H	-1.2840088	2.4060262	-2.4879425
N	0.0000000	0.0000000	0.0000000
C	0.0785519	-2.3815128	-0.4031219
H	0.9007542	-2.5471265	0.2813727
H	-0.3294146	-3.2561255	-0.8933973
C	-0.4265975	-1.1560835	-0.6679235
C	-1.5491003	-0.9679934	-1.6669966
H	-1.2523357	-0.3447525	-2.5198175
H	-1.8575906	-1.9363200	-2.0660532
H	-2.4261125	-0.5004952	-1.1991776
C	0.7340366	1.3358059	1.7862905
C	0.9155962	-0.0491192	1.1485960
C	-0.2072258	1.3663118	-0.4879601
C	0.5191555	2.2610365	0.5692975
H	-0.1506524	1.3353975	2.4331447
H	1.5955074	1.6420793	2.3868881
H	0.6217434	-0.8662506	1.8156642
H	1.9569367	-0.2210323	0.8349388
H	-1.2814322	1.6046231	-0.5299042
H	1.4872773	2.5748069	0.1660354
H	-0.0597787	3.1579688	0.8062326
C	4.4886328	-2.3236081	-1.9314767
H	5.5300407	-2.0806276	-1.6468490
O	4.2632787	-3.2246377	-2.7471809
C	3.4265486	-1.4948847	-1.2649389
H	3.5808147	-0.4311734	-1.4902544
H	2.4343363	-1.8015117	-1.6026836
H	3.4942069	-1.6007687	-0.1740565
