31
-0.00119159 (energy)
C	4.1723680	0.5864787	-1.0058521
O	3.9096075	-0.0386748	-2.0254068
O	4.8662005	1.7856190	-1.0945581
H	5.0031723	2.2143466	-0.2254074
N	2.4131403	-0.3055343	0.5292007
C	0.0753121	0.0276337	0.0155477
H	-0.1365651	-1.0310830	-0.0632210
H	-0.7601637	0.7020531	-0.1219024
C	1.3119454	0.5174625	0.2559203
C	1.5687767	2.0088395	0.3139692
H	2.2655209	2.3456682	-0.4637813
H	0.6335499	2.5529743	0.1678969
H	1.9836078	2.3051926	1.2869283
C	3.6031991	-2.1256108	1.4152608
C	2.2794504	-1.7551434	0.7310979
C	3.8128686	0.1130902	0.4135734
C	4.6247911	-1.1817788	0.7453138
H	3.5366399	-1.9235014	2.4903500
H	3.8690763	-3.1783194	1.2819686
H	1.4052145	-1.9577648	1.3585446
H	2.1482975	-2.2908040	-0.2218929
H	4.0397131	0.9125760	1.1359549
H	4.9841397	-1.6262749	-0.1882942
H	5.4908704	-0.9653706	1.3768710
C	4.0209258	4.8213130	-3.6498503
H	4.8584488	5.1754554	-3.0191988
O	3.8189223	5.3334565	-4.7566094
C	3.1931192	3.7131001	-3.0619060
H	2.7608479	4.0320748	-2.1040732
H	2.3934245	3.4276462	-3.7486237
H	3.8258518	2.8411726	-2.8492909
