31
-0.00112806 (energy)
C	-0.3973492	2.6746285	1.5375513
O	0.1756523	2.5569290	2.6132686
O	0.0255990	3.6416528	0.6357814
H	-0.4837845	3.6352715	-0.1999693
N	-1.3983365	0.3953183	1.3145594
C	0.0314562	-1.5498900	1.2043834
H	-0.3671385	-1.9882969	2.1104183
H	0.7886844	-2.1195792	0.6811115
C	-0.3620391	-0.3465039	0.7311009
C	0.2559720	0.2470429	-0.5176191
H	0.7762682	1.1926012	-0.3201008
H	0.9904358	-0.4452839	-0.9339309
H	-0.5037818	0.4369472	-1.2878593
C	-3.4511121	0.8020964	2.3797659
C	-2.2428701	-0.1453748	2.3889969
C	-1.6108314	1.8307741	1.1092107
C	-2.8259242	2.1704757	2.0333903
H	-4.1610810	0.4934626	1.6040181
H	-3.9800555	0.8237333	3.3370555
H	-2.5126040	-1.1807444	2.1560020
H	-1.7246747	-0.1370332	3.3604540
H	-1.8506312	2.0406617	0.0552116
H	-2.4570526	2.6514606	2.9449380
H	-3.5265533	2.8537193	1.5454480
C	2.6924816	1.4073083	3.3687319
H	2.5342354	2.4846088	3.1713377
O	2.6318925	0.9736353	4.5247029
C	2.9742044	0.5630820	2.1575374
H	3.8718029	0.9299880	1.6420338
H	3.1164356	-0.4810787	2.4440257
H	2.1444229	0.6399039	1.4424330
