31
-0.000890016 (energy)
C	0.4253113	2.1450893	-1.2102306
O	1.5757020	1.9590407	-1.5861809
O	-0.3780651	3.0568805	-1.8813737
H	-1.2840088	3.1118515	-1.5149918
N	0.0000000	0.0000000	0.0000000
C	0.0785519	-2.1000142	-1.1933361
H	0.9007542	-2.4897511	-0.6067647
H	-0.3294146	-2.7541973	-1.9531794
C	-0.4265975	-0.8579198	-1.0230467
C	-1.5491003	-0.3394699	-1.8975376
H	-1.2523357	0.5378669	-2.4857662
H	-1.8575906	-1.1129138	-2.6037154
H	-2.4261125	-0.0601688	-1.2980378
C	0.7340366	0.6442996	2.1354365
C	0.9155962	-0.4390000	1.0625274
C	-0.2072258	1.4508053	0.0087737
C	0.5191555	1.9299682	1.3082847
H	-0.1506524	0.4226787	2.7431410
H	1.5955074	0.7266860	2.8045653
H	0.6217434	-1.4350030	1.4098911
H	1.9569367	-0.4932683	0.7089884
H	-1.2814322	1.6890904	0.0508663
H	1.4872773	2.3627396	1.0366581
H	-0.0597787	2.6917722	1.8376998
C	-2.6833516	6.3297961	-4.1219220
H	-2.8771334	5.8574730	-5.1037276
O	-3.3734153	7.2841313	-3.7463309
C	-1.5569515	5.7303169	-3.3276138
H	-0.6210920	5.7840492	-3.8997386
H	-1.4371513	6.2555734	-2.3777031
H	-1.7523906	4.6663429	-3.1389976
