31
-0.00422841 (energy)
C	-0.3833786	0.2693709	-0.0977158
O	0.5836491	1.0037573	0.0600361
O	-0.2288268	-1.1052356	0.0196748
H	-1.0664624	-1.5968191	-0.1015844
N	-2.2410691	1.8676470	0.3936656
C	-2.4128369	2.8909566	2.5762362
H	-2.2906566	3.8977990	2.1976628
H	-2.5729083	2.7884713	3.6418946
C	-2.3573465	1.7939453	1.7885434
C	-2.4900157	0.4017669	2.3697278
H	-1.5900238	-0.2060736	2.2136937
H	-2.6559661	0.4630694	3.4471188
H	-3.3390861	-0.1366080	1.9272447
C	-2.5898869	2.6871212	-1.7790766
C	-2.3282514	3.1406401	-0.3356421
C	-1.7935652	0.7656718	-0.4626325
C	-1.7650508	1.3875243	-1.8973597
H	-3.6574789	2.4819085	-1.9177499
H	-2.2871059	3.4334786	-2.5192977
H	-3.1453591	3.7424191	0.0757340
H	-1.3982413	3.7242406	-0.2530806
H	-2.5027502	-0.0753200	-0.4150894
H	-0.7301498	1.6274566	-2.1614516
H	-2.1574486	0.6942491	-2.6464818
C	3.6839930	-0.5945627	2.4696483
H	2.8436485	-0.7800408	3.1653507
O	4.8485040	-0.6211245	2.8834365
C	3.2942067	-0.3207644	1.0441030
H	2.6368190	0.5575427	0.9944534
H	4.1817459	-0.1500999	0.4311393
H	2.7233607	-1.1670957	0.6395398
