31
-0.000811505 (energy)
C	1.9088757	1.0182394	1.2515344
O	2.8073865	0.8768192	0.4317599
O	2.0167220	2.0002403	2.2268565
H	1.2355767	2.0436741	2.8150036
N	0.0000000	0.0000000	0.0000000
C	-0.7253106	0.9618557	-2.0950034
H	-0.5009425	0.0716676	-2.6687642
H	-1.1577864	1.7931838	-2.6368634
C	-0.4755703	1.0695952	-0.7709962
C	-0.7657956	2.3513442	-0.0183834
H	0.1389797	2.8018773	0.4084697
H	-1.2057050	3.0875787	-0.6940367
H	-1.4748228	2.1805151	0.8029918
C	0.2346510	-2.2177429	0.7352390
C	0.1155194	-1.3638520	-0.5353175
C	0.6460563	0.1406225	1.3079343
C	1.0515776	-1.3207551	1.6898812
H	-0.7617424	-2.4146092	1.1469902
H	0.7253842	-3.1787555	0.5555489
H	-0.7756709	-1.6016451	-1.1254594
H	0.9966481	-1.4748800	-1.1861706
H	-0.0577156	0.5565151	2.0456398
H	2.1214121	-1.4548965	1.5006929
H	0.8620113	-1.5300464	2.7463150
C	0.1759255	5.1246413	-3.1946784
H	-0.7815229	5.1082129	-2.6400565
O	0.3720605	5.9778988	-4.0673151
C	1.1664012	4.0632792	-2.8053885
H	0.7285522	3.0666787	-2.9507244
H	2.0776965	4.1541610	-3.4002482
H	1.4119154	4.1490050	-1.7385300
