31
-0.000309735 (energy)
C	1.8668783	-0.8771876	1.7402123
O	2.3468711	-1.7978566	1.0911152
O	2.1720026	-0.7550018	3.0889820
H	1.7560065	0.0262695	3.5067786
N	1.3670904	0.7467366	-0.0928283
C	3.1604146	1.6295134	-1.4511267
H	2.7730665	1.2091608	-2.3704975
H	4.0624278	2.2227204	-1.5300667
C	2.5813606	1.4298589	-0.2462170
C	3.1843028	2.0018939	1.0197901
H	3.4840888	1.2226243	1.7315971
H	4.0784332	2.5797096	0.7774499
H	2.4787078	2.6701638	1.5317575
C	-0.8173903	0.0502862	-0.5998014
C	0.5492593	0.3309589	-1.2409935
C	0.8927221	0.1670179	1.1668368
C	-0.4480171	-0.5384699	0.7786860
H	-1.3743485	0.9870170	-0.4839210
H	-1.4286071	-0.6391892	-1.1894543
H	0.5151390	1.1403350	-1.9777290
H	0.9605494	-0.5635112	-1.7340335
H	0.7172005	0.9555518	1.9150864
H	-0.2710431	-1.6148755	0.6872351
H	-1.2213264	-0.3819331	1.5358381
C	-1.9307873	-5.4652370	-0.5023073
H	-1.4404483	-6.2851941	0.0561020
O	-3.0758987	-5.6140576	-0.9434246
C	-1.1125588	-4.2150495	-0.6654374
H	-0.1744522	-4.4433815	-1.1887609
H	-1.6716619	-3.4626256	-1.2256505
H	-0.8367658	-3.8132158	0.3185754
