31
-0.00496687 (energy)
C	0.0233538	-0.4665590	-0.1042377
O	1.1569260	-0.0524021	0.1027400
O	-1.0540753	0.4038598	-0.0108173
H	-1.9103846	-0.0226484	-0.2177391
N	0.5315236	-2.4751452	-1.5022009
C	1.6466113	-2.2185985	-3.6308259
H	2.5094744	-2.8016790	-3.3350862
H	1.6394267	-1.8414452	-4.6454478
C	0.6202939	-1.9425655	-2.7956903
C	-0.5459852	-1.0850431	-3.2406460
H	-0.6378623	-0.1631692	-2.6528456
H	-0.4146554	-0.7914694	-4.2840231
H	-1.4962257	-1.6301298	-3.1601290
C	0.7292736	-4.0638548	0.2156227
C	1.4639523	-3.4981822	-1.0082636
C	-0.3133376	-1.9311772	-0.4353533
C	0.0155185	-2.8275478	0.8033271
H	-0.0003961	-4.8170777	-0.1027049
H	1.4058917	-4.5286722	0.9386618
H	1.6305011	-4.2482500	-1.7884514
H	2.4391077	-3.0657668	-0.7354752
H	-1.3780359	-2.0115843	-0.7044690
H	0.6978846	-2.2847016	1.4651629
H	-0.8846088	-3.0785597	1.3712659
C	1.7474295	-1.0393860	4.3813254
H	1.8475841	-1.4415190	5.4074058
O	0.8905120	-1.4973336	3.6171339
C	2.7050593	0.0621825	4.0227588
H	3.7404521	-0.2876600	4.1305490
H	2.5356789	0.3972340	2.9972699
H	2.5829586	0.9079758	4.7123518
