31
-0.00445631 (energy)
C	-0.2229201	-2.5557571	0.8375224
O	0.8180106	-3.0183923	0.3883190
O	-1.2041748	-3.4118119	1.3186870
H	-1.9835858	-2.9393670	1.6754862
N	0.5379067	-0.2532103	1.4428132
C	2.2784719	0.0530246	3.0911256
H	2.9574873	0.5308051	2.3964017
H	2.6180128	-0.0427656	4.1144975
C	1.0675295	-0.4259932	2.7290021
C	0.1692912	-1.1267817	3.7268001
H	-0.0292643	-2.1704274	3.4526080
H	0.6424244	-1.1354112	4.7107409
H	-0.7980844	-0.6151615	3.8216077
C	0.0645271	0.8239842	-0.5893248
C	1.1865178	0.5960409	0.4338147
C	-0.5526784	-1.0531963	0.8784532
C	-0.6982075	-0.5182173	-0.5839333
H	-0.5857132	1.6400019	-0.2540668
H	0.4429983	1.0762760	-1.5841922
H	1.5292755	1.5242211	0.9028902
H	2.0583381	0.0996114	-0.0198503
H	-1.4829253	-0.8965669	1.4464136
H	-0.2164686	-1.2216785	-1.2705205
H	-1.7473968	-0.4193079	-0.8758397
C	2.6749266	-2.1552301	-2.4477081
H	3.7342907	-2.3536002	-2.1967503
O	2.0699552	-1.2297028	-1.8950592
C	2.0712576	-3.0727806	-3.4737505
H	2.1299322	-4.1141737	-3.1300871
H	1.0287668	-2.8056430	-3.6592958
H	2.6393880	-3.0161589	-4.4117458
