31
-0.00363731 (energy)
C	2.0818717	2.3308142	2.9995775
O	2.8608366	2.6092085	2.0967697
O	1.5678436	3.3419333	3.7999669
H	0.9384305	3.0144382	4.4741907
N	1.2065703	0.1405513	2.1728056
C	0.0101984	0.0280602	0.0760650
H	0.7324052	-0.6315599	-0.3879353
H	-0.8538364	0.2974520	-0.5177580
C	0.1570591	0.5219745	1.3256464
C	-0.8581939	1.4773603	1.9172852
H	-0.4256675	2.4583064	2.1506683
H	-1.6706573	1.6429769	1.2069730
H	-1.2943468	1.0747636	2.8415395
C	2.7829819	-1.2769744	3.1825425
C	2.1395081	-0.9418669	1.8292945
C	1.6425342	0.8980458	3.3492379
C	2.8759994	0.0967733	3.8807278
H	2.1325930	-1.9547761	3.7470549
H	3.7631691	-1.7516627	3.0797962
H	1.5826639	-1.7829877	1.4032975
H	2.8883343	-0.6176670	1.0900525
H	0.8435417	0.9331702	4.1061053
H	3.7933099	0.6084773	3.5724542
H	2.8732607	0.0270744	4.9720230
C	4.1461032	0.5032014	-1.6943286
H	3.5982327	1.4436119	-1.8944506
O	3.5903345	-0.4213927	-1.0907899
C	5.5604437	0.4590552	-2.2010534
H	6.1469894	1.2732138	-1.7547837
H	6.0227524	-0.5007440	-1.9609845
H	5.5771985	0.6152797	-3.2878499
