31
-0.00361019 (energy)
C	0.4253113	-2.1450894	1.2102305
O	1.5757020	-1.9590408	1.5861808
O	-0.3780651	-3.0568806	1.8813736
H	-1.2840088	-3.1118516	1.5149917
N	0.0000000	0.0000000	0.0000000
C	0.0785519	2.1000142	1.1933362
H	0.9007542	2.4897511	0.6067648
H	-0.3294146	2.7541972	1.9531795
C	-0.4265975	0.8579197	1.0230467
C	-1.5491003	0.3394698	1.8975376
H	-1.2523357	-0.5378671	2.4857662
H	-1.8575906	1.1129137	2.6037155
H	-2.4261125	0.0601687	1.2980378
C	0.7340366	-0.6442995	-2.1354366
C	0.9155962	0.4390000	-1.0625274
C	-0.2072258	-1.4508053	-0.0087738
C	0.5191555	-1.9299681	-1.3082848
H	-0.1506524	-0.4226785	-2.7431410
H	1.5955074	-0.7266858	-2.8045654
H	0.6217434	1.4350031	-1.4098910
H	1.9569367	0.4932683	-0.7089883
H	-1.2814322	-1.6890904	-0.0508664
H	1.4872773	-2.3627396	-1.0366582
H	-0.0597787	-2.6917721	-1.8376999
C	4.9374242	-0.9174111	-0.0504092
H	5.1302074	-0.3763349	0.8954523
O	3.8346002	-0.8283234	-0.6016395
C	6.0871517	-1.7308332	-0.5753370
H	6.3891406	-2.4810964	0.1675996
H	5.8097005	-2.2279911	-1.5072338
H	6.9590488	-1.0856297	-0.7465712
