31
-0.00831526 (energy)
C	2.3626335	-0.3685354	0.7747962
O	2.2766378	-1.5874570	0.8087878
O	3.5859588	0.2431548	1.0313054
H	3.5509276	1.2194916	0.9624356
N	0.0000000	0.0000000	0.0000000
C	-1.1713648	-1.4700955	-1.5175822
H	-1.9775254	-1.6717634	-0.8238110
H	-1.2370551	-1.9444809	-2.4882314
C	-0.1038058	-0.6991472	-1.2109751
C	1.0293468	-0.5031069	-2.1948687
H	1.9640473	-0.9461826	-1.8320267
H	0.7838493	-0.9871329	-3.1423907
H	1.2125898	0.5601337	-2.3988829
C	-0.7601656	1.3101058	1.8010495
C	-1.1149008	0.0785570	0.9530285
C	1.2165594	0.6164011	0.5111344
C	0.7803689	1.2650959	1.8718144
H	-1.0935016	2.2209902	1.2910000
H	-1.2187432	1.2887418	2.7940134
H	-2.0559223	0.2009463	0.4065946
H	-1.1960964	-0.8320874	1.5671496
H	1.5916282	1.3872342	-0.1821099
H	1.0981664	0.6265884	2.7039706
H	1.2309789	2.2515645	2.0170043
C	2.6977288	3.3230841	-2.4875664
H	2.6641216	2.6065880	-3.3302329
O	2.8672240	2.9146745	-1.3332332
C	2.5261628	4.7687217	-2.8614316
H	1.5635986	4.9157063	-3.3692825
H	2.5726809	5.4015566	-1.9726500
H	3.3080760	5.0706139	-3.5708583
