31
-0.0129551 (energy)
C	1.9631516	-1.3706424	0.7335601
O	1.3695024	-2.4360295	0.6438149
O	3.3172356	-1.3625910	1.0553405
H	3.7024487	-0.4624594	1.0796891
N	0.0000000	0.0000000	0.0000000
C	-1.5858239	-0.2472897	-1.8015047
H	-2.4493008	-0.1269156	-1.1601526
H	-1.7818706	-0.4094936	-2.8534346
C	-0.3118679	-0.2134249	-1.3473238
C	0.8598938	-0.3923391	-2.2874486
H	1.4676302	-1.2631831	-2.0132289
H	0.4979589	-0.5470208	-3.3057710
H	1.5165431	0.4879781	-2.2995951
C	-0.2810833	0.1610645	2.3591764
C	-1.0523367	0.1087139	1.0253558
C	1.3384622	0.0265511	0.5639382
C	1.1158439	0.6821325	1.9589669
H	-0.7682935	0.8022713	3.0989687
H	-0.1977398	-0.8441707	2.7861053
H	-1.6529714	1.0151900	0.8565169
H	-1.7300518	-0.7526326	0.9747855
H	2.0211338	0.6309363	-0.0491005
H	1.8938838	0.4196356	2.6826901
H	1.1069243	1.7713491	1.8416359
C	5.6498862	2.0124940	1.1204570
H	6.1825348	1.6426374	0.2237550
O	4.4735175	1.6893195	1.3197733
C	6.4530006	2.9012979	2.0282636
H	6.8053346	3.7837780	1.4776852
H	5.8517392	3.2179016	2.8831458
H	7.3469782	2.3707325	2.3819836
