31
-0.0108517 (energy)
C	-0.4210108	0.0195499	0.2507095
O	-0.6428573	-0.0771540	-0.9564705
O	0.8626691	0.0626667	0.7656890
H	1.5243320	-0.0028550	0.0426832
N	-2.7896331	0.3996700	0.9138804
C	-4.4856632	1.9150847	0.1061585
H	-5.2154776	1.1332491	-0.0602852
H	-4.7946590	2.9254518	-0.1286446
C	-3.2390855	1.6794681	0.5779890
C	-2.2570051	2.8109013	0.7905490
H	-1.3461923	2.6771449	0.1934235
H	-2.7116891	3.7584079	0.4945913
H	-1.9549170	2.8987736	1.8423673
C	-2.7152916	-1.9767034	1.0741185
C	-3.6350051	-0.7902505	0.7174411
C	-1.4500439	0.0672043	1.3772510
C	-1.6364937	-1.3522877	1.9852440
H	-3.2567154	-2.7901232	1.5655732
H	-2.2533289	-2.3802036	0.1664255
H	-4.5178379	-0.7369102	1.3722013
H	-3.9939297	-0.8443110	-0.3183881
H	-1.0813467	0.7691350	2.1303615
H	-0.7035640	-1.9211563	2.0156438
H	-2.0064465	-1.2445036	3.0107429
C	3.1142877	0.3890920	-2.5596467
H	2.9560416	1.4689362	-2.3766780
O	3.0536987	-0.4137928	-1.6217143
C	3.3960105	0.0100319	-3.9865397
H	4.2936090	0.5311234	-4.3454654
H	3.5382417	-1.0691430	-4.0744528
H	2.5662290	0.3268011	-4.6322433
