31
-0.00418335 (energy)
C	0.4203229	-0.0199575	-0.2518292
O	-0.4797977	-0.5879028	-0.8707574
O	0.2103432	0.5729819	0.9807407
H	-0.7282761	0.4744357	1.2529736
N	2.2569118	-0.7152522	-1.7809351
C	2.8964676	-2.8565185	-2.6927255
H	2.8943450	-2.5082797	-3.7175791
H	3.1591522	-3.8943201	-2.5332984
C	2.5873641	-2.0655455	-1.6387275
C	2.6044333	-2.6050861	-0.2250765
H	1.6234691	-2.5128871	0.2578711
H	2.8715753	-3.6636919	-0.2343611
H	3.3353842	-2.0809899	0.4044746
C	1.6462649	1.3434158	-2.8140614
C	2.1672836	-0.0792224	-3.1062977
C	1.8657313	0.1790473	-0.7006800
C	2.0332887	1.5873475	-1.3394225
H	2.0759880	2.0906644	-3.4873196
H	0.5570891	1.3753572	-2.9272174
H	3.1573416	-0.0690430	-3.5865386
H	1.4877779	-0.6403243	-3.7606128
H	2.5021730	0.0725572	0.1821686
H	1.4230652	2.3473862	-0.8445871
H	3.0847391	1.8832801	-1.2557191
C	5.6890488	-0.2056431	0.6185273
H	5.4879852	-1.2053986	1.0482310
O	4.7498920	0.5327743	0.3011374
C	7.1409195	0.1515426	0.4650088
H	7.6440409	-0.5816917	-0.1794158
H	7.2455927	1.1502882	0.0359081
H	7.6441072	0.1142260	1.4403154
