31
-0.00199505 (energy)
C	-0.7379794	-1.2069521	-2.9379188
O	0.1728363	-0.6046079	-3.5066432
O	-1.0127734	-2.5398385	-3.1885160
H	-0.3962801	-2.8954286	-3.8655094
N	-1.2886027	0.6184416	-1.3381031
C	0.0719226	1.9565865	0.1396498
H	-0.3054125	2.8979571	-0.2385555
H	0.8086356	2.0116103	0.9306484
C	-0.3294857	0.7525430	-0.3307178
C	0.2326948	-0.5340177	0.2336573
H	0.7311352	-1.1338047	-0.5382511
H	0.9698734	-0.3098420	1.0072272
H	-0.5485357	-1.1582972	0.6867074
C	-2.7627343	1.2002918	-3.1176368
C	-1.8842345	1.7935720	-1.9964682
C	-1.7293070	-0.6386337	-1.9257136
C	-3.0504905	-0.2406870	-2.6436894
H	-3.6779458	1.7771357	-3.2787518
H	-2.2062303	1.1817827	-4.0610821
H	-2.4728255	2.3738739	-1.2699972
H	-1.1022500	2.4543706	-2.3921157
H	-1.9111590	-1.4113190	-1.1735786
H	-3.3101326	-0.9265955	-3.4542503
H	-3.8625903	-0.2548815	-1.9085547
C	2.8311863	-3.4291679	-2.4845222
H	2.4585687	-2.7261552	-3.2536206
O	2.6897941	-4.6475503	-2.6380303
C	3.4928990	-2.7932646	-1.2942108
H	2.7933838	-2.1108894	-0.7931226
H	3.8284172	-3.5573509	-0.5898129
H	4.3498014	-2.1874266	-1.6174630
