31
-0.0109812 (energy)
C	-0.4784841	-0.0021692	-0.1074048
O	-0.2876593	0.5050987	0.9980889
O	0.5572254	-0.4817006	-0.8898703
H	1.4190194	-0.3455175	-0.4386567
N	-2.9618656	-0.0362530	0.0548081
C	-4.4732856	-0.8204848	1.7653649
H	-5.0141355	0.1151456	1.8260013
H	-4.8063730	-1.6168376	2.4183025
C	-3.4259673	-1.0204452	0.9315573
C	-2.7037817	-2.3495073	0.8885867
H	-1.6403385	-2.2433522	1.1372825
H	-3.1467631	-3.0369066	1.6120139
H	-2.7682386	-2.8187567	-0.1018430
C	-2.6655241	2.0999894	-0.9586038
C	-3.5539268	1.3120126	0.0265841
C	-1.8130969	-0.1643520	-0.8304409
C	-2.0176585	1.0059057	-1.8344468
H	-3.2370945	2.8224141	-1.5482892
H	-1.8924937	2.6496297	-0.4104725
H	-4.6001938	1.2565936	-0.3098739
H	-3.5519727	1.7575467	1.0296729
H	-1.7907902	-1.1258468	-1.3508734
H	-1.0842167	1.3185340	-2.3096767
H	-2.7074978	0.6739983	-2.6180855
C	2.7682311	1.1545466	2.0056758
H	2.6724037	0.2019191	2.5605639
O	2.6501492	1.1696428	0.7752934
C	3.0421055	2.3684880	2.8485383
H	3.9728040	2.2324162	3.4153997
H	3.1209771	3.2592379	2.2217046
H	2.2394875	2.5054947	3.5853196
