31
-0.00456831 (energy)
C	-0.4784841	-0.0940998	-0.0518239
O	-0.2876592	1.1169197	0.0616161
O	0.5572253	-1.0115006	-0.0277702
H	1.4190193	-0.5526467	0.0798986
N	-2.9618656	0.0293390	0.0588000
C	-4.4732856	1.1186089	1.5932431
H	-5.0141354	1.6389369	0.8132816
H	-4.8063729	1.2858931	2.6093736
C	-3.4259672	0.2965300	1.3495100
C	-2.7037818	-0.4052148	2.4790263
H	-1.6403386	-0.1367604	2.5114412
H	-3.1467632	-0.1224081	3.4360452
H	-2.7682388	-1.4975767	2.3901933
C	-2.6655240	0.2198198	-2.2979461
C	-3.5539268	0.6790292	-1.1229442
C	-1.8130970	-0.8013587	-0.2728874
C	-2.0176586	-1.0857244	-1.7883634
H	-3.2370944	0.0703497	-3.2184270
H	-1.8924936	0.9693355	-2.4998829
H	-4.6001938	0.3599386	-1.2431790
H	-3.5519725	1.7704966	-1.0072436
H	-1.7907904	-1.7328139	0.2995752
H	-1.0842168	-1.3409715	-2.2967223
H	-2.7074980	-1.9303291	-1.8927425
C	3.0137467	-1.2855317	-2.7846333
H	3.7717532	-0.6437268	-3.2725836
O	2.8704877	-1.2517536	-1.5572996
C	2.2143458	-2.1591606	-3.7102730
H	2.8829668	-2.8238845	-4.2734205
H	1.4938832	-2.7552614	-3.1462037
H	1.6852716	-1.5422334	-4.4487137
