31
-0.00154884 (energy)
C	-0.1667807	-0.4609839	0.0128677
O	-1.0871492	0.3352324	0.1994488
O	1.1371135	-0.0481350	-0.1976376
H	1.1928600	0.9324132	-0.1819577
N	-1.4971124	-2.5059425	0.5058388
C	-2.9510708	-3.1027248	2.3375784
H	-3.7825606	-3.3626804	1.6952020
H	-3.1074763	-3.2137560	3.4027835
C	-1.7629400	-2.6537741	1.8697285
C	-0.6334903	-2.3027178	2.8136074
H	-0.3258504	-1.2546943	2.7085632
H	-0.9522578	-2.4530256	3.8469961
H	0.2525632	-2.9279372	2.6424046
C	-1.8658131	-2.3566037	-1.8436530
C	-2.5249584	-2.7772977	-0.5135003
C	-0.2641325	-1.9824279	-0.0646330
C	-0.3517898	-2.4329432	-1.5508123
H	-2.1625453	-2.9997725	-2.6770814
H	-2.1489043	-1.3285188	-2.0947090
H	-2.7940309	-3.8442627	-0.5018645
H	-3.4374600	-2.2035484	-0.3065120
H	0.6275187	-2.3942258	0.4162000
H	0.2561743	-1.8117791	-2.2137062
H	0.0079304	-3.4652467	-1.6220949
C	0.9236626	0.2014559	-4.2147161
H	1.1164460	0.0165143	-5.2885942
O	-0.1791614	-0.0707911	-3.7271990
C	2.0733900	0.7862869	-3.4432385
H	2.3753789	1.7454029	-3.8847654
H	1.7959388	0.9347350	-2.3975040
H	2.9452872	0.1214284	-3.5030035
