31
-0.000239376 (energy)
C	-2.3587524	0.0353431	0.7935342
O	-2.1383269	0.6901940	1.8125701
O	-3.6413643	-0.2727800	0.3753670
H	-4.3033108	0.0931388	1.0020715
N	0.0000000	0.0000000	0.0000000
C	1.6481667	1.7389275	-0.2917057
H	2.3999710	1.2335204	0.3007076
H	1.9266529	2.6946442	-0.7165627
C	0.4106492	1.2352029	-0.5082861
C	-0.6033834	1.9855217	-1.3440876
H	-1.5119416	2.2148836	-0.7731718
H	-0.1776432	2.9315633	-1.6844520
H	-0.9042919	1.4150659	-2.2325328
C	-0.0042156	-1.9953463	1.3026623
C	0.8791507	-0.8101874	0.8601416
C	-1.3276835	-0.5783140	-0.1501805
C	-1.0976822	-2.0725872	0.2153655
H	0.5624684	-2.9266413	1.3914200
H	-0.4572936	-1.7830181	2.2772214
H	1.7622927	-1.1391373	0.2919849
H	1.2359366	-0.2209150	1.7146318
H	-1.7141700	-0.4805250	-1.1684562
H	-2.0134548	-2.5687383	0.5471607
H	-0.7275148	-2.5942115	-0.6740245
C	3.4410752	6.0432599	-0.2254133
H	2.3362360	6.0526121	-0.1635605
O	4.0682405	7.1074910	-0.2711084
C	4.0754443	4.6808482	-0.2475088
H	3.7013212	4.1039973	-1.1038509
H	5.1624078	4.7662214	-0.3091403
H	3.7997817	4.1212911	0.6562165
