31
-0.000263327 (energy)
C	1.8200140	-1.4708608	-0.7944818
O	1.3983641	-1.9150270	-1.8625543
O	2.7092469	-2.1737157	-0.0006576
H	2.9237788	-3.0401176	-0.4107213
N	0.8251958	0.7959543	-1.0524441
C	0.8600545	2.3956341	-2.8594372
H	-0.2166469	2.5025030	-2.8893203
H	1.4263399	2.9872314	-3.5670995
C	1.5011123	1.5708882	-1.9986619
C	3.0101488	1.4586042	-2.0010298
H	3.3418297	0.4323390	-2.2030133
H	3.4296044	2.1017618	-2.7772403
H	3.4451357	1.7655621	-1.0408924
C	-0.9645424	-0.2891480	0.0867415
C	-0.6454330	0.7859197	-0.9730514
C	1.4442290	-0.1476356	-0.1325632
C	0.3284359	-0.3822535	0.9254239
H	-1.8373268	-0.0300802	0.6929184
H	-1.1664849	-1.2491781	-0.4007928
H	-1.0132715	1.7808114	-0.6800750
H	-1.0849275	0.5448654	-1.9494882
H	2.3472124	0.2546352	0.3350039
H	0.4434163	-1.3331848	1.4521143
H	0.3742655	0.4264539	1.6630027
C	2.9210226	6.1380375	-6.1288461
H	2.7120974	5.4350248	-6.9575236
O	2.9306621	7.3564198	-6.3373253
C	3.1792385	5.5021342	-4.7916739
H	4.0371916	4.8197590	-4.8574576
H	3.3749948	6.2662205	-4.0364068
H	2.3150307	4.8962961	-4.4884932
