31
-0.00710119 (energy)
C	-0.4782452	-0.0030401	0.1084427
O	0.1022348	-0.9162324	0.6957875
O	0.1845721	0.8767807	-0.7291046
H	1.1425520	0.6623247	-0.7624428
N	-2.7768534	-0.7107019	0.7489688
C	-3.9213636	-2.8324772	0.6324342
H	-4.2080144	-2.8235116	1.6761538
H	-4.2383673	-3.6874622	0.0493718
C	-3.1996267	-1.8455535	0.0517686
C	-2.8244422	-1.9096480	-1.4127904
H	-1.7366358	-1.8923076	-1.5556411
H	-3.2022910	-2.8344839	-1.8532518
H	-3.2476700	-1.0710241	-1.9810234
C	-2.2942549	0.7465542	2.5715651
C	-3.0441924	-0.5461881	2.1879331
C	-1.9574636	0.3619267	0.2032464
C	-2.1554640	1.5082659	1.2357574
H	-2.8270320	1.3275610	3.3297858
H	-1.3033957	0.5021149	2.9697808
H	-4.1276982	-0.4658552	2.3626084
H	-2.6815951	-1.4153530	2.7516414
H	-2.2842381	0.6729823	-0.7928875
H	-1.3340969	2.2294548	1.2240837
H	-3.0819849	2.0391647	0.9911437
C	2.8786801	2.1190107	1.5795443
H	3.0096202	1.4055547	2.4152584
O	2.8147750	1.7058725	0.4162537
C	2.7902830	3.5667147	1.9737743
H	3.6985811	3.8673636	2.5128954
H	2.6622291	4.1962664	1.0906867
H	1.9481556	3.7199869	2.6616277
