31
-0.000727537 (energy)
C	1.1910717	0.0353431	2.1851219
O	2.1563496	0.6901940	1.7910915
O	1.0019805	-0.2727800	3.5208620
H	1.7341098	0.0931388	4.0639260
N	0.0000000	0.0000000	0.0000000
C	-0.5734751	1.7389275	-1.5724732
H	-0.1206114	1.2335204	-2.4157274
H	-1.0402362	2.6946442	-1.7729530
C	-0.5718726	1.2352029	-0.3161476
C	-1.2188915	1.9855217	0.8276150
H	-0.4988798	2.2148836	1.6232317
H	-1.6280140	2.9315633	0.4674464
H	-2.0415870	1.4150659	1.2782289
C	1.2836040	-1.9953463	-0.2220534
C	0.6944112	-0.8101874	-1.0151564
C	0.0826508	-0.5783140	1.3335916
C	0.4027041	-2.0725872	1.0436082
H	1.2726096	-2.9266413	-0.7955408
H	2.3220334	-1.7830181	0.0549110
H	-0.0184699	-1.1391373	-1.7862221
H	1.4739646	-0.2209150	-1.5149026
H	-0.8530423	-0.4805250	1.8910281
H	0.8884808	-2.5687383	1.8878525
H	-0.5374530	-2.5942115	0.8335054
C	-2.0974621	-2.8103184	-1.7810582
H	-2.2801052	-1.7206402	-1.7192054
O	-0.9404930	-3.2431540	-1.8267532
C	-3.3290187	-3.6716303	-1.8031539
H	-3.9620716	-3.4033599	-2.6594960
H	-3.0561934	-4.7272555	-1.8647854
H	-3.9279432	-3.4973217	-0.8994286
