31
-0.00109861 (energy)
C	4.1705770	-1.3996037	1.2113244
O	4.1390209	-0.3155856	1.7942137
O	4.9723325	-2.4445495	1.6357927
H	5.4867881	-2.1810275	2.4299715
N	2.2897042	-0.9066074	-0.3423585
C	0.0608395	-0.0524088	0.0153022
H	0.1659782	0.7447505	-0.7093236
H	-0.8903832	-0.1207276	0.5271229
C	1.0476527	-0.9348745	0.2973466
C	0.8473301	-2.0302691	1.3219373
H	1.5736656	-1.9592261	2.1413391
H	-0.1515019	-1.9548425	1.7563828
H	0.9443795	-3.0294428	0.8774894
C	4.1078270	-0.1224275	-1.6681960
C	2.6239128	0.1326431	-1.3310021
C	3.4109161	-1.7895038	-0.0540486
C	4.3251368	-1.6057667	-1.2989655
H	4.3379241	0.0844509	-2.7172793
H	4.7487018	0.5165503	-1.0508507
H	1.9741296	0.0351501	-2.2137403
H	2.4632905	1.1337697	-0.9107193
H	3.1044415	-2.8335800	0.0545703
H	5.3684290	-1.8596183	-1.0940406
H	3.9619404	-2.2636169	-2.0961178
C	6.3377134	2.8980956	-0.0999772
H	6.1366498	3.1476654	0.9592070
O	5.3985566	2.7137524	-0.8822906
C	7.7895841	2.8089341	-0.4783947
H	8.2927055	2.0469749	0.1317970
H	7.8942573	2.5597828	-1.5364797
H	8.2927718	3.7629437	-0.2722848
