31
-0.00865205 (energy)
C	-0.4784841	0.0673768	-0.0836711
O	-0.2876592	-0.2546311	1.0892517
O	0.5572253	0.2029935	-0.9913114
H	1.4190193	0.0172813	-0.5581250
N	-2.9618656	-0.0630014	0.0186828
C	-4.4732856	-1.7632825	0.8249510
H	-5.0141354	-1.0855244	1.4728129
H	-4.8063729	-2.7930243	0.8132446
C	-3.4259672	-1.3804998	0.0576852
C	-2.7037818	-2.3709995	-0.8295370
H	-1.6403386	-2.4495386	-0.5707898
H	-3.1467632	-3.3625880	-0.7172113
H	-2.7682388	-2.0938295	-1.8898778
C	-2.6655240	2.2248639	0.6155143
C	-3.5539268	0.9879720	0.8637104
C	-1.8130970	0.4078961	-0.7417979
C	-2.0176586	1.9497282	-0.7586839
H	-3.2370944	3.1573158	0.6281548
H	-1.8924936	2.2935807	1.3887092
H	-4.6001938	1.1617896	0.5703461
H	-3.5519725	0.6844979	1.9185048
H	-1.7907904	0.0058760	-1.7585092
H	-1.0842168	2.4946872	-0.9217775
H	-2.7074980	2.1991855	-1.5723319
C	3.1212957	-2.7378175	-0.0746296
H	3.3740621	-2.7284650	1.0026840
O	2.9673887	-1.6735866	-0.6843322
C	2.9893788	-4.1002293	-0.6955241
H	2.2110123	-4.6770801	-0.1783823
H	2.7399344	-4.0148564	-1.7552720
H	3.9272428	-4.6597863	-0.5809796
