31
-0.00705891 (energy)
C	-0.4784841	0.0707001	0.0808825
O	-0.2876593	-1.0284872	-0.4399093
O	0.5572254	0.9410016	0.3720491
H	1.4190194	0.5466448	0.1139362
N	-2.9618656	-0.0074586	-0.0652884
C	-4.4732856	-0.5062267	-1.8797455
H	-5.0141355	-1.2619376	-1.3247841
H	-4.8063730	-0.3158852	-2.8918104
C	-3.4259673	0.1829130	-1.3695438
C	-2.7037817	1.2286546	-2.1909310
H	-1.6403385	0.9874765	-2.3132079
H	-3.1467631	1.2902231	-3.1869601
H	-2.7682386	2.2247564	-1.7338455
C	-2.6655241	-0.9925067	2.0841802
C	-3.5539268	-1.0221480	0.8229808
C	-1.8130969	0.6596980	0.5305112
C	-2.0176585	0.4085911	2.0518516
H	-3.2370945	-1.1668737	3.0002711
H	-1.8924937	-1.7658876	2.0175892
H	-4.6001938	-0.7634235	1.0450999
H	-3.5519727	-2.0082199	0.3409539
H	-1.7907902	1.7307733	0.3111488
H	-1.0842167	0.4745757	2.6168523
H	-2.7074978	1.1665602	2.4388077
C	2.2593894	-2.2070863	-1.3234758
H	2.1592349	-2.5585862	-0.2789665
O	3.1163069	-1.3650654	-1.6145176
C	1.3017596	-2.8204548	-2.3062282
H	0.2663667	-2.6217459	-1.9987816
H	1.4711399	-2.4179476	-3.3071653
H	1.4238602	-3.9116318	-2.3216345
