31
-0.00738836 (energy)
C	1.9819825	-1.4245974	0.3864603
O	1.9510635	-2.2345727	-0.5402732
O	2.5460843	-1.7259141	1.6136092
H	2.8879283	-2.6467620	1.6167901
N	1.1353875	0.5062328	-0.9363512
C	1.7861719	1.4327612	-3.0678857
H	0.7846243	1.3976307	-3.4768695
H	2.5603409	1.8274853	-3.7131048
C	2.0941668	1.0093911	-1.8196902
C	3.5130071	1.0796414	-1.2983827
H	3.8937676	0.0891506	-1.0191350
H	4.1726461	1.4836095	-2.0689563
H	3.5933748	1.7275535	-0.4157438
C	-0.9360407	-0.3566621	-0.1345088
C	-0.2737055	0.3502888	-1.3354646
C	1.4024707	-0.0123943	0.3976043
C	-0.0078848	-0.0233555	1.0534656
H	-1.9635144	-0.0204929	0.0316449
H	-0.9590581	-1.4391086	-0.3015658
H	-0.7195644	1.3363131	-1.5352540
H	-0.3527341	-0.2414601	-2.2564854
H	2.0910801	0.6215188	0.9631050
H	-0.0799773	-0.7342133	1.8807366
H	-0.2170858	0.9789952	1.4428991
C	4.6296472	-4.8656506	-0.4976594
H	4.9962534	-4.4510562	-1.4559362
O	4.0869648	-4.1256496	0.3305353
C	4.8436758	-6.3412264	-0.3080660
H	5.9139836	-6.5787652	-0.3718104
H	4.4532807	-6.6628945	0.6597657
H	4.3464499	-6.9011448	-1.1112292
