31
-0.00659131 (energy)
C	-0.4782452	0.0673768	0.0850261
O	0.1022348	-0.2546312	1.1219470
O	0.1845721	0.2029936	-1.1221103
H	1.1425520	0.0172814	-1.0097992
N	-2.7768534	-0.0630014	1.0305738
C	-3.9213636	-1.7632826	2.3051539
H	-4.2080144	-1.0855245	3.0989266
H	-4.2383673	-2.7930244	2.4080760
C	-3.1996267	-1.3804998	1.2259560
C	-2.8244422	-2.3709994	0.1452378
H	-1.7366358	-2.4495385	0.0246616
H	-3.2022910	-3.3625879	0.4022979
H	-3.2476700	-2.0938293	-0.8291110
C	-2.2942549	2.2248638	1.4900574
C	-3.0441924	0.9879719	2.0271369
C	-1.9574636	0.4078962	-0.0769463
C	-2.1554640	1.9497282	-0.0228496
H	-2.8270320	3.1573157	1.6974242
H	-1.3033957	2.2935806	1.9522309
H	-4.1276982	1.1617896	2.1093090
H	-2.6815951	0.6844977	3.0176510
H	-2.2842381	0.0058761	-1.0399718
H	-1.3340969	2.4946873	-0.4953633
H	-3.0819849	2.1991857	-0.5514896
C	2.7728908	2.3381071	-2.1203774
H	3.1455084	3.0411197	-1.3512791
O	2.9142829	1.1197247	-1.9668693
C	2.1111781	2.9740104	-3.3106888
H	2.8106934	3.6563856	-3.8117771
H	1.7756598	2.2099241	-4.0150867
H	1.2542757	3.5798485	-2.9874367
