31
-0.00494432 (energy)
C	0.1654879	0.2419382	0.3931504
O	-1.0227519	0.4987346	0.1982329
O	0.8794899	-0.6188873	-0.4217591
H	0.3032356	-0.9738064	-1.1336522
N	0.4959238	1.9252740	2.1964393
C	-0.0356397	4.2745222	2.3509961
H	-0.5797416	4.1700130	3.2808513
H	0.0337290	5.2728952	1.9388169
C	0.5381046	3.2326764	1.7048770
C	1.2864417	3.4352528	0.4053544
H	0.8469604	2.8511152	-0.4129788
H	1.2527455	4.4878084	0.1171034
H	2.3418663	3.1453768	0.4910938
C	-0.1432999	0.0516946	3.5228807
C	-0.2334556	1.5892908	3.4310542
C	1.0453694	0.7524654	1.5313271
C	1.0975204	-0.3010391	2.6744741
H	-0.0564962	-0.2993773	4.5551271
H	-1.0389836	-0.4039878	3.0867239
H	0.2371342	2.0857040	4.2930687
H	-1.2725646	1.9382635	3.3748216
H	2.0427611	0.9328258	1.1208401
H	1.0960457	-1.3275958	2.2988774
H	2.0185967	-0.1462695	3.2470082
C	0.2103713	-4.0010128	-1.5754492
H	0.7582417	-4.6445288	-0.8610907
O	0.7661401	-3.0160359	-2.0744019
C	-1.2039693	-4.4177761	-1.8670432
H	-1.7905150	-4.4383744	-0.9388263
H	-1.6662779	-3.7299707	-2.5782192
H	-1.2207242	-5.4370817	-2.2751470
