31
-0.00494647 (energy)
C	1.7294430	2.7489048	-1.2562642
O	1.5063520	3.3232921	-2.3199347
O	2.8614718	2.0082309	-1.0484274
H	2.8066255	1.6233435	-0.1369994
N	1.2058512	1.9362279	1.0468470
C	0.0379908	0.0381911	0.0621744
H	-0.1599465	0.5351420	-0.8790259
H	-0.2924031	-0.9898769	0.1387266
C	0.6892438	0.6134558	1.0946674
C	0.9810460	-0.1482699	2.3682674
H	0.5202633	0.3230176	3.2450357
H	0.5934062	-1.1660771	2.2923721
H	2.0599656	-0.2108181	2.5605756
C	1.8488719	4.1023556	1.7652131
C	1.5179383	2.6975441	2.2899699
C	0.7936559	2.8565365	-0.0408356
C	0.8601115	4.2733914	0.5940995
H	1.7325822	4.8700094	2.5352181
H	2.8832576	4.1395294	1.4029339
H	0.6482441	2.7315891	2.9642006
H	2.3492425	2.2373516	2.8304273
H	-0.2210158	2.6346574	-0.3894808
H	1.1621189	5.0285993	-0.1349121
H	-0.1313482	4.5468106	0.9726047
C	4.7402004	0.9875302	-3.1535654
H	4.6475717	0.9648679	-2.0510732
O	4.9861068	-0.0515766	-3.7763007
C	4.5481028	2.3352947	-3.7905172
H	5.2815067	3.0491172	-3.3922422
H	4.6561736	2.2645430	-4.8749026
H	3.5541050	2.7313449	-3.5436853
