31
-0.00412567 (energy)
C	-0.1764058	0.1233765	0.3990641
O	-0.9982703	0.3901131	-0.4752790
O	1.0355309	-0.4454536	0.1145915
H	1.5090802	-0.5907290	0.9727835
N	0.6607992	-0.1210991	2.7396265
C	-0.4324055	-2.2954116	2.8549119
H	-1.1578368	-2.0703263	2.0834954
H	-0.4708515	-3.2942754	3.2705283
C	0.5088508	-1.4265947	3.2795240
C	1.5286910	-1.8152720	4.3265614
H	1.4690781	-1.1771336	5.2167193
H	1.3653513	-2.8474500	4.6426071
H	2.5524487	-1.7386071	3.9379680
C	1.1244952	2.2013988	2.6272689
C	1.3788510	0.9525219	3.4840020
C	-0.4026919	0.4575770	1.8828610
C	-0.3203382	1.9894064	2.1313625
H	1.2467790	3.1265026	3.1973154
H	1.8207000	2.2304347	1.7804882
H	0.9602410	1.0844545	4.4936919
H	2.4407562	0.7135050	3.5848287
H	-1.3910309	0.0724638	2.1571167
H	-0.5688944	2.5580362	1.2325380
H	-1.0341771	2.2674235	2.9150442
C	2.7024502	-3.7656514	-2.0195408
H	1.8958526	-3.7750036	-2.7770998
O	3.1535144	-4.8298825	-1.5814022
C	3.1742025	-2.4032398	-1.5948499
H	2.3371614	-1.8263889	-1.1793356
H	3.9672488	-2.4886130	-0.8489507
H	3.5439363	-1.8436827	-2.4643361
