31
-0.0043865 (energy)
C	-0.3022552	0.3313068	-0.0668614
O	-0.7755122	-0.7083301	-0.5210289
O	0.9338882	0.3774845	0.5188861
H	1.0853600	1.3059456	0.8301153
N	-0.3160593	2.7368403	0.6055457
C	-1.3827656	2.0977444	2.7007107
H	-1.8006081	1.1786056	2.3100843
H	-1.5610422	2.2959624	3.7499348
C	-0.6434999	2.9585937	1.9702818
C	-0.0432715	4.2035531	2.5844749
H	-0.4037412	5.1180524	2.0977431
H	-0.3048546	4.2617746	3.6428419
H	1.0516529	4.2020813	2.5063678
C	0.1581010	3.1923440	-1.6724628
C	0.1040972	3.8539871	-0.2876545
C	-1.0223829	1.6862519	-0.1673043
C	-1.0299884	2.2099572	-1.6304213
H	0.0780428	3.9217051	-2.4832318
H	1.1019356	2.6482597	-1.7978833
H	-0.6346018	4.6702828	-0.2776875
H	1.0674770	4.2634642	0.0272515
H	-2.0449188	1.5402821	0.1980115
H	-0.9561387	1.3931919	-2.3518408
H	-1.9688124	2.7430283	-1.8187325
C	2.1619904	-2.9859783	-0.9375426
H	2.3297734	-2.6723591	-1.9854332
O	3.0601377	-2.8512767	-0.0989731
C	0.8052354	-3.5628528	-0.6451220
H	0.6253423	-4.4434164	-1.2762267
H	0.7279540	-3.8436001	0.4073918
H	0.0233012	-2.8320025	-0.8905810
