31
-0.00426436 (energy)
C	-0.2573967	0.3683758	0.0603251
O	0.9107389	0.6851064	0.2753284
O	-0.6170047	-0.9040986	-0.2929084
H	-1.5969954	-0.9106236	-0.4392744
N	-2.7029857	0.7643994	-0.2577515
C	-2.2562233	1.3759608	-2.5734410
H	-1.2254414	1.6538954	-2.3938909
H	-2.5969347	1.4399504	-3.5989971
C	-3.0945764	0.9331421	-1.6131403
C	-4.5112575	0.5114248	-1.9334535
H	-5.2523503	1.1113956	-1.3912618
H	-4.7032912	0.6271183	-3.0019544
H	-4.6866047	-0.5397381	-1.6702575
C	-2.8375292	0.7169000	2.1089501
C	-3.7066597	0.7049615	0.8429123
C	-1.4292594	1.3500288	0.2265893
C	-1.6856449	1.6681545	1.7259556
H	-3.3923458	1.0539437	2.9888952
H	-2.4522981	-0.2887873	2.3157638
H	-4.3717717	1.5820659	0.8222230
H	-4.3249308	-0.1925615	0.7584657
H	-1.1726023	2.2611224	-0.3251153
H	-0.7829619	1.5362971	2.3266074
H	-2.0074136	2.7111304	1.8243567
C	4.9425234	1.2874886	0.1840153
H	5.0567887	1.3022054	1.2846105
O	5.6913314	0.5881120	-0.5074837
C	3.8445287	2.1558224	-0.3632345
H	4.0095616	3.2017125	-0.0718155
H	3.8039605	2.0801220	-1.4519036
H	2.8781610	1.8565891	0.0638560
