31
-0.00446397 (energy)
C	-1.9559451	-0.3583246	-1.6892021
O	-2.0188777	-0.0964030	-2.8885861
O	-2.5177835	-1.4870288	-1.1566164
H	-2.3636254	-1.4673866	-0.1779965
N	-1.4163337	0.0734102	0.7110765
C	-3.5040482	1.3135420	0.9099321
H	-3.5693196	1.5460124	-0.1453851
H	-4.3253009	1.6559425	1.5265763
C	-2.4962813	0.6076458	1.4642047
C	-2.4847025	0.2705164	2.9385320
H	-1.6062309	0.6840123	3.4488889
H	-3.3752833	0.6768091	3.4220071
H	-2.4764682	-0.8148815	3.1022572
C	0.7785110	-0.6346057	0.1606182
C	-0.1272217	-0.3060606	1.3564812
C	-1.1909595	0.5199769	-0.6852440
C	0.3445032	0.4031692	-0.8944021
H	1.8400198	-0.5649648	0.4137439
H	0.5815324	-1.6520663	-0.1979278
H	0.2882377	0.5317423	1.9375097
H	-0.2647405	-1.1536881	2.0329087
H	-1.5254708	1.5526240	-0.8338528
H	0.5918621	0.1227241	-1.9206426
H	0.8123795	1.3722386	-0.6870072
C	4.9799286	-0.0929925	-0.3946372
H	4.7788651	-0.3425622	-1.4538215
O	4.0407718	0.0913507	0.3876761
C	6.4317993	-0.0038310	-0.0162196
H	6.9349208	0.7581283	-0.6264112
H	6.5364724	0.2453203	1.0418654
H	6.9349870	-0.9578405	-0.2223295
