31
-0.00737489 (energy)
C	3.9846911	-1.0616184	0.0348419
O	5.0111667	-1.5406069	-0.4426549
O	3.4672574	-1.4843086	1.2293621
H	2.6313277	-0.9776684	1.3917958
N	1.9341905	0.3644753	0.0596857
C	0.7601630	-1.3820295	-1.1680775
H	1.6592552	-1.8124569	-1.5904078
H	-0.1687346	-1.8826348	-1.4099199
C	0.7518125	-0.3077386	-0.3514191
C	-0.5325424	0.2188789	0.2490289
H	-0.7298328	1.2569069	-0.0454705
H	-1.3767612	-0.3894570	-0.0813923
H	-0.5042177	0.1905863	1.3460063
C	3.3837452	2.1271754	0.7025805
C	1.8973685	1.7616877	0.5781417
C	3.2200022	0.0955744	-0.6290137
C	4.0130389	1.4275212	-0.5192545
H	3.5455705	3.2086261	0.7031358
H	3.7988543	1.7217936	1.6331351
H	1.3915276	2.4354898	-0.1305402
H	1.3650928	1.8096053	1.5317267
H	3.0623344	-0.1769223	-1.6784083
H	5.0868831	1.2513209	-0.4253525
H	3.8463709	2.0231213	-1.4239637
C	6.7755246	-0.0434016	2.2670443
H	6.9259981	-0.9556575	1.6589902
O	5.7039579	0.5701259	2.2092432
C	7.9403664	0.3589947	3.1274505
H	8.8281279	0.5315634	2.5044364
H	7.7050737	1.2648570	3.6901470
H	8.1940791	-0.4520754	3.8228702
