31
-0.00781972 (energy)
C	-0.4675723	-1.9824889	1.4456926
O	-0.8219995	-3.1342988	1.6881807
O	-0.1744919	-1.0837459	2.4354642
H	0.0571364	-0.2232405	2.0021904
N	-0.0000000	-0.0000000	0.0000000
C	-2.3708601	0.5562840	0.0747849
H	-2.6917647	-0.4546120	0.2918262
H	-3.1501925	1.3064483	0.0319067
C	-1.0820322	0.9152959	-0.1016660
C	-0.6894977	2.3540798	-0.3531597
H	-0.1760128	2.4791255	-1.3143320
H	-1.5783889	2.9879010	-0.3631172
H	-0.0156361	2.7289544	0.4280841
C	2.0951234	-1.0260936	-0.4233489
C	1.3286805	0.2915362	-0.6098934
C	-0.2601595	-1.4601496	0.0143679
C	1.0016504	-2.0926584	-0.6358669
H	2.9269843	-1.1243078	-1.1262606
H	2.5010914	-1.0897142	0.5933734
H	1.2306533	0.5337507	-1.6793966
H	1.8085868	1.1382465	-0.1121892
H	-1.1595305	-1.7118439	-0.5584533
H	1.2381272	-3.0642573	-0.1964587
H	0.8207316	-2.2412229	-1.7064805
C	2.9120048	1.0274610	3.1527589
H	3.6651106	0.2169344	3.1742338
O	2.2110831	1.1956936	2.1485584
C	2.8265148	1.8631720	4.3990961
H	3.7974085	2.3328021	4.6061221
H	2.0613162	2.6346728	4.2903101
H	2.5906513	1.2286586	5.2637200
