31
-0.00414505 (energy)
C	1.8790837	0.2607620	1.6247955
O	2.6707280	-0.1051421	2.4911089
O	1.7801504	1.5673009	1.2292563
H	1.0629724	1.6223275	0.5477321
N	0.0000000	0.0000000	0.0000000
C	-1.5702602	0.3429077	1.8310432
H	-0.8785590	0.0254229	2.6009459
H	-2.5411165	0.6808562	2.1704147
C	-1.2715107	0.3696027	0.5153161
C	-2.2632313	0.8711947	-0.5105139
H	-2.5164730	0.1013178	-1.2496443
H	-3.1873546	1.1794818	-0.0176535
H	-1.8691679	1.7352089	-1.0611096
C	1.6338165	-0.8796777	-1.4759557
C	0.1815965	-0.3824151	-1.4293833
C	0.9712539	-0.7176319	0.8611600
C	1.7949805	-1.5970061	-0.1202737
H	1.8190379	-1.5375241	-2.3295683
H	2.3247696	-0.0309807	-1.5458052
H	-0.5121865	-1.1875247	-1.7167470
H	0.0020292	0.4719646	-2.0872046
H	0.4623003	-1.3395567	1.6058198
H	2.8321874	-1.7022669	0.2054981
H	1.3523552	-2.5984669	-0.1669166
C	6.9371697	0.4047900	3.5029915
H	7.0514350	1.4912203	3.6796146
O	7.6859779	-0.3976490	4.0716654
C	5.8391751	0.0166386	2.5528208
H	6.0042078	0.4852471	1.5734245
H	5.7986069	-1.0686364	2.4383257
H	4.8728074	0.3852793	2.9216716
