31
-0.0040175 (energy)
C	-1.8176185	1.7879896	0.5539655
O	-2.0362101	2.3902034	1.6030802
O	-1.9337680	2.3871314	-0.6711147
H	-1.7374014	1.7033110	-1.3608083
N	-1.3134130	-0.2039150	-0.8662478
C	-3.6811189	-0.7767519	-0.8232516
H	-3.8834321	-0.2461614	0.0984536
H	-4.5315495	-1.2459472	-1.3013392
C	-2.4634459	-0.8445168	-1.4009905
C	-2.2514500	-1.5592802	-2.7168942
H	-1.5349215	-2.3848662	-2.6266165
H	-3.1964573	-1.9732432	-3.0740385
H	-1.8684003	-0.8774062	-3.4871429
C	0.9548509	0.1864321	-0.2968246
C	0.0641024	-0.6303194	-1.2443827
C	-1.3349740	0.3284323	0.5179732
C	0.1348103	0.2117393	1.0090469
H	1.9439195	-0.2620361	-0.1689855
H	1.0911624	1.2031970	-0.6843681
H	0.2068222	-1.7088560	-1.0755512
H	0.2605523	-0.4224775	-2.2994405
H	-2.0059585	-0.2531336	1.1597703
H	0.4007627	1.0280483	1.6842612
H	0.2603817	-0.7311837	1.5532386
C	3.7722319	-0.3797185	2.5488812
H	3.5455384	0.6815685	2.7653595
O	3.4286245	-0.8796055	1.4718207
C	4.5016304	-1.1192084	3.6352561
H	3.9162693	-1.0992488	4.5642346
H	4.6830292	-2.1542056	3.3378474
H	5.4576591	-0.6245861	3.8524456
