31
-0.00389286 (energy)
C	-0.3982956	1.5871064	-2.0322341
O	0.0499068	1.5306596	-3.1754811
O	-1.6816049	1.9831433	-1.7685015
H	-1.8031396	1.9758271	-0.7851280
N	-0.2963484	1.4886882	0.4615248
C	0.5098546	3.7877993	0.4736537
H	0.9044508	3.7481315	-0.5336782
H	0.5938691	4.7394179	0.9828763
C	-0.0945455	2.7485802	1.0867001
C	-0.6716235	2.8787520	2.4786296
H	-0.2053271	2.1809966	3.1849301
H	-0.5149089	3.8914764	2.8551745
H	-1.7508614	2.6783799	2.4863009
C	-0.5077503	-0.8583493	0.2000702
C	-0.5508956	0.2543028	1.2576740
C	0.4146734	1.1614623	-0.7983552
C	0.6037863	-0.3804515	-0.7562286
H	-0.2991673	-1.8382511	0.6382587
H	-1.4674206	-0.9200110	-0.3270089
H	0.2344265	0.0998378	2.0136661
H	-1.5125198	0.3149541	1.7739474
H	1.3835086	1.6699347	-0.8545378
H	0.5502486	-0.8210611	-1.7542278
H	1.5894140	-0.6124878	-0.3370463
C	3.2277546	-0.2420673	2.9235018
H	3.9808604	-1.0110580	2.6664651
O	2.5268329	0.2594764	2.0374008
C	3.1422646	0.1169718	4.3805057
H	4.1131583	0.4874726	4.7356694
H	2.3770660	0.8791524	4.5421490
H	2.9064011	-0.7749946	4.9759700
