31
-0.00331187 (energy)
C	-0.3916481	-0.1233765	-0.1923093
O	-0.4592160	-0.3901130	1.0057606
O	0.7196048	0.4454535	-0.7534086
H	0.5307294	0.5907289	-1.7152135
N	-1.2547964	0.1210989	-2.5234292
C	-2.1663438	2.2954115	-1.9090446
H	-2.2261994	2.0703263	-0.8518070
H	-2.4629482	3.2942753	-2.2027128
C	-1.7182350	1.4265945	-2.8393442
C	-1.6100148	1.8152718	-4.2969621
H	-2.2278634	1.1771333	-4.9405441
H	-1.9382905	2.8474498	-4.4340744
H	-0.5759878	1.7386068	-4.6573410
C	-0.8273626	-2.2013989	-2.7354162
C	-1.1832122	-0.9525220	-3.5552087
C	-1.5187596	-0.4575770	-1.1835098
C	-1.6154067	-1.9894065	-1.4268089
H	-1.1001066	-3.1265027	-3.2506996
H	0.2502614	-2.2304348	-2.5342564
H	-2.1529022	-1.0844547	-4.0595987
H	-0.4345556	-0.7135052	-4.3150259
H	-2.4521594	-0.0724638	-0.7583099
H	-1.2280586	-2.5580362	-0.5785005
H	-2.6659799	-2.2674236	-1.5682971
C	3.2898746	3.0700811	0.4931450
H	2.2548640	3.4567465	0.5549978
O	4.2432056	3.8556280	0.4474499
C	3.4200145	1.5728658	0.4710496
H	2.8711591	1.1587609	-0.3852925
H	4.4706254	1.2813270	0.4094180
H	2.9695967	1.1413363	1.3747749
