31
-0.00326404 (energy)
C	2.4764312	2.2087638	1.0556047
O	2.3970891	3.4353621	1.0713144
O	3.3030571	1.5403136	0.1935449
H	3.1760099	0.5695196	0.3460753
N	1.8474712	-0.1226200	1.6943314
C	0.0522559	-0.0401916	0.0492084
H	-0.0222582	1.0398181	0.0541237
H	-0.5999443	-0.5612641	-0.6400394
C	0.9193175	-0.7382900	0.8120744
C	1.0125949	-2.2453459	0.7253955
H	0.7904142	-2.7278181	1.6850890
H	0.3010032	-2.6222305	-0.0118638
H	2.0168014	-2.5687917	0.4222216
C	3.2239815	0.2165280	3.5948136
C	2.4709972	-0.8749623	2.8201873
C	1.7055176	1.3129144	2.0393194
C	2.2829058	1.4326433	3.4771388
H	3.4190007	-0.0712369	4.6315789
H	4.1869909	0.4284002	3.1149128
H	1.7052626	-1.3432123	3.4577660
H	3.1292621	-1.6629404	2.4450663
H	0.6565975	1.6283603	2.0147669
H	2.7777753	2.3935323	3.6346252
H	1.4658125	1.3506270	4.2028442
C	2.8368627	3.6756400	-2.2467389
H	2.9556773	3.6645832	-1.1465827
O	2.7163193	2.6136486	-2.8677508
C	2.8360240	5.0374156	-2.8828556
H	3.7746642	5.5605554	-2.6563023
H	2.7142825	4.9538412	-3.9648774
H	2.0242426	5.6483056	-2.4661570
