31
-0.00315078 (energy)
C	2.6064317	0.3158403	-3.1800581
O	3.0695302	-0.0034360	-4.2730759
O	3.3754753	0.3768757	-2.0495141
H	2.7832397	0.6265041	-1.2953324
N	0.8037991	0.9035666	-1.5540180
C	0.3744974	-1.4741328	-1.2405413
H	0.7834698	-1.7647502	-2.1998537
H	0.0282791	-2.2790541	-0.6047907
C	0.3140788	-0.1988954	-0.8032531
C	-0.2229054	0.1416770	0.5690040
H	-1.0947649	0.8052594	0.5172866
H	-0.5255782	-0.7694539	1.0887980
H	0.5347568	0.6454843	1.1830794
C	0.9738389	3.0996598	-2.4314550
C	0.3515522	2.2972651	-1.2793682
C	1.1395012	0.7355262	-2.9889371
C	0.8673801	2.1275495	-3.6239631
H	0.4531084	4.0452096	-2.6060937
H	2.0244004	3.3264131	-2.2135439
H	-0.7466033	2.3713147	-1.3055461
H	0.6913617	2.6304327	-0.2952611
H	0.5161751	-0.0336702	-3.4581321
H	1.5646836	2.3438320	-4.4363639
H	-0.1477036	2.1444467	-4.0366810
C	1.2990855	3.2129835	3.3495318
H	2.3404934	3.5386588	3.5338902
O	1.0737312	2.0873055	2.8911908
C	0.2370013	4.2196983	3.6924324
H	0.3912676	5.1421975	3.1168944
H	-0.7552110	3.8160478	3.4799288
H	0.3046597	4.4933036	4.7537409
