31
-0.00842946 (energy)
C	1.5273917	-1.6345624	1.2446971
O	1.6316419	-2.5588383	2.0552223
O	2.3676921	-1.5148483	0.1574947
H	3.0433712	-2.2277735	0.1760167
N	0.9286283	0.7818154	0.9779581
C	2.1469782	0.9887055	3.0611978
H	1.9263475	-0.0166511	3.3969407
H	2.7478943	1.5971709	3.7247706
C	1.7240530	1.4956427	1.8781945
C	2.0934450	2.8992598	1.4506838
H	1.2049067	3.5087289	1.2430265
H	2.6651498	3.3923980	2.2393698
H	2.7076196	2.8964413	0.5412209
C	-0.1612257	0.0403909	-0.9997624
C	0.4926431	1.2731960	-0.3442245
C	0.4451772	-0.5587849	1.2812021
C	-0.6401526	-0.8073859	0.1974441
H	-0.9807137	0.3153295	-1.6705283
H	0.5842128	-0.5150273	-1.5763502
H	-0.2283492	2.0987373	-0.2426086
H	1.3385689	1.6397628	-0.9360240
H	0.0219963	-0.6060698	2.2913488
H	-0.7598204	-1.8671094	-0.0455454
H	-1.6004872	-0.4395156	0.5763419
C	6.4918343	-2.5628999	0.6123147
H	7.0244829	-1.6014049	0.7403605
O	5.3154656	-2.5739255	0.2327792
C	7.2949488	-3.7934854	0.9281382
H	7.6472828	-3.7579105	1.9676775
H	6.6936873	-4.6921369	0.7748839
H	8.1889263	-3.8345332	0.2917951
