31
-0.00124123 (energy)
C	-2.8124024	1.6570839	-0.2479947
O	-2.4370170	2.6944487	-0.8003219
O	-3.3510330	1.6563817	1.0217777
H	-3.3374841	2.5662306	1.3921007
N	-2.3659267	-0.7939785	0.0000000
C	-0.0603960	-0.0515657	0.0204722
H	-0.2416956	0.8279990	-0.5842092
H	0.9608208	-0.2140151	0.3404496
C	-1.0301037	-0.9226894	0.3894686
C	-0.7182701	-2.1174531	1.2639149
H	-1.0129888	-3.0600321	0.7856261
H	0.3533606	-2.1622690	1.4680142
H	-1.2422538	-2.0616612	2.2265516
C	-4.7327064	-0.9859393	-0.1018576
C	-3.4634982	-1.6858483	0.4238043
C	-2.8032873	0.2727427	-0.8909055
C	-4.2326942	-0.1681514	-1.3112420
H	-5.5146953	-1.7003597	-0.3760394
H	-5.1326461	-0.3144417	0.6634925
H	-3.3517130	-2.6888781	-0.0156380
H	-3.4912836	-1.7998367	1.5130347
H	-2.1385565	0.3592343	-1.7582961
H	-4.8808770	0.6779856	-1.5567812
H	-4.1534217	-0.7999891	-2.2032239
C	3.1409193	-1.9177482	-2.8749382
H	3.0538203	-1.2147355	-3.7250969
O	3.0605570	-3.1361306	-3.0675475
C	3.3556156	-1.2818448	-1.5300923
H	2.5269041	-0.5994697	-1.2984716
H	3.4299815	-2.0459311	-0.7534208
H	4.2713992	-0.6760068	-1.5407722
