31
-0.00719056 (energy)
C	-2.0832088	0.0921768	1.3857464
O	-3.2235331	0.5582356	1.4532381
O	-1.3093106	-0.1170440	2.5081338
H	-1.7871462	0.1952353	3.3076978
N	-0.0000000	-0.0000000	-0.0000000
C	-0.4812147	2.3531595	-0.3132736
H	-1.5517030	2.2448713	-0.1929756
H	-0.1169331	3.3540951	-0.5058509
C	0.3929857	1.3219891	-0.2249060
C	1.8826657	1.5434408	-0.3704035
H	2.3082092	0.9328255	-1.1767137
H	2.0846652	2.5920858	-0.5975538
H	2.4211719	1.2888687	0.5513042
C	-0.0012356	-2.3016984	0.5924974
C	0.9199025	-1.1437319	0.1592527
C	-1.4047216	-0.3736281	0.1002508
C	-1.3761557	-1.9240651	0.0022537
H	0.3558712	-3.2707173	0.2311720
H	-0.0616432	-2.3420745	1.6839836
H	1.4318645	-1.3757861	-0.7871721
H	1.6882287	-0.9399575	0.9131353
H	-1.9895144	0.0693613	-0.7142995
H	-2.2134427	-2.3960291	0.5243446
H	-1.4376219	-2.2067972	-1.0548268
C	-3.2648252	0.4047912	5.8059533
H	-3.0547324	1.4912213	5.7953081
O	-2.3979351	-0.3976480	5.4418034
C	-4.6366945	0.0166399	6.2817593
H	-5.4023602	0.4852485	5.6491386
H	-4.7561343	-1.0686351	6.2596449
H	-4.8004441	0.3852806	7.3030837
