31
-0.000843376 (energy)
C	0.7050901	0.0921766	-2.4006041
O	1.5352464	0.5582353	-3.1852921
O	-0.6092070	-0.1170443	-2.7629506
H	-0.7571135	0.1952349	-3.6825990
N	-0.0000000	0.0000000	0.0000000
C	0.5700002	2.3531595	-0.0693376
H	1.3127159	2.2448712	-0.8495877
H	0.4147306	3.3540951	0.3123408
C	-0.1564778	1.3219891	0.4248942
C	-1.2041149	1.5434410	1.4938995
H	-1.0118140	0.9328257	2.3851031
H	-1.2128462	2.5920860	1.7977493
H	-2.2090969	1.2888688	1.1339755
C	-0.3799034	-2.3016984	-0.4546733
C	-0.8070519	-1.1437319	0.4693073
C	1.0116393	-0.3736282	-0.9797341
C	1.0527478	-1.9240652	-0.8863020
H	-0.4212077	-3.2707172	0.0516619
H	-1.0352223	-2.3420747	-1.3296296
H	-0.5908875	-1.3757860	1.5233937
H	-1.8802103	-0.9399574	0.3856702
H	1.9831994	0.0693612	-0.7316499
H	1.3585534	-2.3960293	-1.8244444
H	1.7793119	-2.2067972	-0.1160410
C	6.1106979	-1.0231735	-1.3262892
H	6.6585683	-0.0710309	-1.4598753
O	6.6664668	-2.0984302	-1.5772001
C	4.6963573	-0.8913475	-0.8350250
H	4.1098116	-0.2789220	-1.5328401
H	4.2340488	-1.8753721	-0.7323453
H	4.6796022	-0.3728381	0.1327977
