31
-0.000564136 (energy)
C	1.8609901	-0.2567602	1.7391896
O	2.2361692	-0.0901734	2.9026305
O	2.2787691	-1.3305613	0.9809963
H	2.9200347	-1.8720857	1.4915622
N	1.2071065	0.9117097	-0.3763867
C	3.0644909	2.3496175	0.2148936
H	2.9719966	2.1855163	1.2810356
H	3.8561226	3.0158739	-0.1030382
C	2.2624603	1.7656304	-0.7076321
C	2.4633580	2.0101185	-2.1872343
H	1.5573821	2.4090454	-2.6606681
H	3.2703313	2.7291806	-2.3415106
H	2.7294387	1.0866731	-2.7171312
C	-0.4934414	-0.7456541	-0.4771430
C	0.3452014	0.2105489	-1.3485996
C	0.8565266	0.6313862	1.0097602
C	-0.5340168	-0.0534014	0.9014576
H	-1.4929237	-0.9113217	-0.8902631
H	0.0098369	-1.7133865	-0.3945219
H	-0.2975550	0.9195710	-1.8924986
H	0.9377043	-0.3383343	-2.0887724
H	0.8043572	1.5551442	1.5976921
H	-0.7295751	-0.7455621	1.7255018
H	-1.3068455	0.7233293	0.9251232
C	7.0385757	0.8787932	-1.8508201
H	6.8559325	1.4771984	-2.7635828
O	8.1955448	0.6228025	-1.4988212
C	5.8070191	0.4290020	-1.1159498
H	5.1739662	-0.1784770	-1.7764497
H	6.0798446	-0.1521851	-0.2325673
H	5.2080947	1.2988053	-0.8150429
