31
-0.00842399 (energy)
C	-0.4352305	-0.1941497	0.1186666
O	-0.5756522	0.9165516	-0.3997249
O	0.8073851	-0.7600027	0.3140179
H	1.5044466	-0.1728370	-0.0527103
N	-1.4487752	-2.4706221	0.3614613
C	-1.9191595	-2.1675990	-1.9952277
H	-1.9760492	-1.0878758	-1.9395089
H	-2.0824712	-2.6089078	-2.9700277
C	-1.6502124	-2.9617990	-0.9311499
C	-1.5519009	-4.4642844	-1.0802438
H	-2.2540683	-4.9859675	-0.4177619
H	-1.7780822	-4.7538973	-2.1083605
H	-0.5448435	-4.8292199	-0.8415001
C	-0.7857908	-2.2548632	2.6336343
C	-1.0984536	-3.2924056	1.5368980
C	-1.5721995	-1.0516014	0.6681172
C	-1.6104849	-1.0175008	2.2210647
H	-1.0486065	-2.6173523	3.6319371
H	0.2809256	-2.0126611	2.6249367
H	-1.9372724	-3.9415507	1.8312922
H	-0.2341037	-3.9346643	1.3354254
H	-2.4879223	-0.6328757	0.2347179
H	-1.2199164	-0.0825516	2.6330168
H	-2.6525510	-1.1176236	2.5454231
C	4.5730341	-0.1558586	-0.3835522
H	4.3629413	-0.3340318	-1.4553256
O	3.7061440	0.3421013	0.3434620
C	5.9449033	-0.5570344	0.0813251
H	6.7105691	-0.0153977	-0.4900177
H	6.0643431	-0.3467999	1.1462722
H	6.1086528	-1.6268563	-0.1043640
