31
-0.00111069 (energy)
C	2.3138330	2.3093034	-0.1741559
O	2.3813002	2.6769029	1.0016095
O	1.9102540	3.1565553	-1.1849641
H	1.6618358	4.0302905	-0.8107675
N	1.8124050	0.3693211	-1.6753511
C	0.0331067	-0.0044668	-0.0748986
H	0.5606720	0.4464801	0.7560436
H	-0.9548682	-0.3932944	0.1357616
C	0.5387596	-0.0894314	-1.3288699
C	-0.2622020	-0.7029350	-2.4564472
H	0.2710038	-1.5387330	-2.9267745
H	-1.2143113	-1.0795386	-2.0773495
H	-0.4795782	0.0303075	-3.2434950
C	3.6909362	1.1500118	-2.9043802
C	2.3807773	0.3482820	-3.0377809
C	2.7201056	0.9284986	-0.6822293
C	4.0852820	0.9743753	-1.4228124
H	4.4662151	0.7908247	-3.5877586
H	3.5053501	2.2065155	-3.1188077
H	2.5776130	-0.6826535	-3.3695972
H	1.7019184	0.8087832	-3.7639196
H	2.7684402	0.2929979	0.2096883
H	4.7396483	1.7694630	-1.0540055
H	4.5979106	0.0183907	-1.2664792
C	2.8685059	-2.3035995	1.9907537
H	2.9611346	-1.5775707	2.8207447
O	2.6225993	-1.9078841	0.8457858
C	3.0606036	-3.7454717	2.3691466
H	2.3271998	-4.0362852	3.1330794
H	2.9525327	-4.3883023	1.4929810
H	4.0546014	-3.8902032	2.8128070
