31
-0.00136161 (energy)
C	3.3261287	-0.1361824	-2.2024677
O	3.8055463	-1.0165909	-2.9215956
O	3.9720597	0.3193442	-1.0721076
H	4.8033570	-0.1858118	-0.9345935
N	1.1949855	0.8223447	-1.3035777
C	0.5989239	-1.5162328	-1.0966143
H	1.2258359	-1.8437600	-1.9162792
H	0.0296418	-2.2842151	-0.5888937
C	0.5092908	-0.2278541	-0.6874763
C	-0.3610571	0.1621479	0.4871512
H	-1.1036200	0.9208161	0.2094869
H	-0.8954201	-0.7123844	0.8635909
H	0.2340468	0.5739197	1.3121582
C	2.2419496	2.9128488	-1.7308113
C	1.1709764	2.2294492	-0.8572761
C	2.0229152	0.6072712	-2.4830551
C	2.2904268	2.0456315	-3.0063442
H	1.9950874	3.9569176	-1.9454233
H	3.2106224	2.8852753	-1.2233330
H	0.1796485	2.6799097	-1.0186101
H	1.4081006	2.3173904	0.2086633
H	1.4965000	0.0002455	-3.2287904
H	3.2368731	2.1289954	-3.5482559
H	1.4838383	2.3204627	-3.6955594
C	2.9468366	-5.5802740	-1.7668881
H	3.1996030	-5.2205993	-2.7824305
O	2.7929296	-6.7888546	-1.5579437
C	2.8149198	-4.5123843	-0.7174657
H	2.0365532	-3.7934489	-1.0061253
H	2.5654754	-4.9550639	0.2491723
H	3.7527837	-3.9473961	-0.6337225
