31
-0.00613418 (energy)
C	2.2416960	1.0084494	0.4757917
O	2.8703076	2.0674972	0.5490749
O	2.8267629	-0.1625927	0.0412779
H	3.7581234	0.0057022	-0.2221461
N	-0.0000000	-0.0000000	-0.0000000
C	-0.0306956	1.6731421	-1.7512056
H	0.6087297	2.3697737	-1.2239648
H	-0.3796132	1.9837870	-2.7276355
C	-0.3912671	0.4636423	-1.2588175
C	-1.2621116	-0.4798896	-2.0592762
H	-2.1731685	-0.7552124	-1.5131560
H	-1.5598293	-0.0087080	-2.9981103
H	-0.7331424	-1.4101665	-2.3024172
C	0.5137356	-1.4064812	1.8457401
C	-0.3220343	-1.3307513	0.5523584
C	0.7891805	0.8233174	0.9067709
C	0.6900296	0.0691086	2.2616187
H	0.0222653	-2.0023622	2.6206346
H	1.4891942	-1.8539910	1.6339926
H	-1.3976433	-1.4209359	0.7682433
H	-0.0533159	-2.1315495	-0.1452811
H	0.3761556	1.8361173	0.9799911
H	1.5608170	0.2350199	2.9023847
H	-0.1946959	0.4315715	2.7973576
C	5.7073957	-2.4757774	-0.9619795
H	5.5931303	-2.8660323	0.0672082
O	4.9585875	-1.5820719	-1.3725753
C	6.8053904	-3.1045737	-1.7732137
H	6.6403577	-4.1870601	-1.8570848
H	6.8459586	-2.6610920	-2.7703370
H	7.7717581	-2.9694598	-1.2695361
