31
-0.00335589 (energy)
C	2.4315292	-0.3084250	-0.5109683
O	3.5261670	0.2585263	-0.5603607
O	2.0881819	-1.3167838	-1.3871934
H	2.8106675	-1.4554685	-2.0382916
N	-0.0000000	-0.0000000	-0.0000000
C	0.3450480	2.0976424	-1.1609936
H	1.3921223	2.1773690	-0.8975126
H	-0.0631300	2.9006385	-1.7611994
C	-0.4462082	1.0621541	-0.7908239
C	-1.8958125	0.9921791	-1.2187345
H	-2.5714670	0.9178963	-0.3573127
H	-2.1633199	1.8882828	-1.7822018
H	-2.0866001	0.1220444	-1.8596766
C	0.2038071	-2.1208134	1.0533201
C	-0.8099579	-1.1745789	0.3795224
C	1.3542943	-0.0379465	0.5360391
C	1.2939342	-1.1727377	1.5956994
H	-0.2553440	-2.7233848	1.8427292
H	0.6338820	-2.7977455	0.3093981
H	-1.6147413	-0.8932335	1.0758290
H	-1.2741053	-1.6427547	-0.4954444
H	1.6252271	0.9219745	0.9908593
H	2.2592921	-1.6655634	1.7426183
H	0.9901506	-0.7373092	2.5544759
C	5.3270103	-3.4114300	1.7878783
H	6.0955208	-3.0840219	1.0620833
O	4.2483564	-2.8121180	1.8609748
C	5.7008469	-4.5956387	2.6346216
H	6.6114754	-4.3772029	3.2082839
H	4.8879122	-4.8484156	3.3185935
H	5.9281746	-5.4596320	1.9961461
