31
-0.00568092 (energy)
C	-0.3699741	2.4932843	-0.4479319
O	0.0711611	3.5511690	-0.9044240
O	-1.7125217	2.1799323	-0.4906117
H	-2.2182164	2.9248132	-0.8837697
N	-0.0827511	0.7748234	1.3501070
C	0.3230195	2.7316481	2.7187760
H	0.7078438	3.3342442	1.9057992
H	0.2892276	3.2021512	3.6930163
C	-0.1134208	1.4579286	2.5687546
C	-0.6711900	0.6781333	3.7392970
H	-0.1240097	-0.2589870	3.9020047
H	-0.6021837	1.2730407	4.6521938
H	-1.7262665	0.4180850	3.5859037
C	-0.5191289	-0.7732014	-0.3997684
C	-0.5986497	-0.5907214	1.1291070
C	0.4825153	1.3771768	0.1498839
C	0.6172999	0.1783261	-0.8293324
H	-0.3225247	-1.8118509	-0.6819611
H	-1.4607914	-0.4630452	-0.8620413
H	0.0189799	-1.3374337	1.6512455
H	-1.6270677	-0.6957109	1.4917662
H	1.4560005	1.8353924	0.3598348
H	0.5527800	0.4803695	-1.8786108
H	1.5965097	-0.2888328	-0.6742667
C	3.3488619	3.4212936	-1.6408299
H	3.5577871	3.0551441	-2.6639954
O	3.3392224	2.6315542	-0.6899193
C	3.0906461	4.8972704	-1.5229524
H	2.2326930	5.1814875	-2.1467986
H	2.8948898	5.1693078	-0.4836007
H	3.9548538	5.4627515	-1.8960333
