31
-0.00418572 (energy)
C	1.0095673	-2.3397642	0.2454946
O	0.8303145	-3.5602954	0.2621488
O	2.1710365	-1.7760998	-0.2400123
H	2.7996324	-2.4819654	-0.5079092
N	0.5381438	-0.1959592	1.4498238
C	0.9705082	-1.5636463	3.4016334
H	0.6483524	-2.4880856	2.9392800
H	1.3082294	-1.6304572	4.4278594
C	0.9776994	-0.3677704	2.7650984
C	1.4710316	0.8844794	3.4563659
H	0.7071017	1.6721314	3.4658444
H	1.7385119	0.6601736	4.4908699
H	2.3592216	1.2966326	2.9607961
C	0.1904363	0.6702654	-0.7359539
C	0.5806648	1.0749383	0.6996797
C	-0.0198672	-1.2997999	0.6797261
C	-0.6690765	-0.5970190	-0.5445700
H	-0.3502151	1.4662000	-1.2567832
H	1.0881240	0.4291807	-1.3127177
H	-0.1316011	1.8044688	1.1145735
H	1.5779823	1.5272316	0.7309345
H	-0.7630177	-1.8531392	1.2656077
H	-0.6984201	-1.2357345	-1.4320156
H	-1.7010866	-0.3329510	-0.2869695
C	3.1851804	-3.2958527	-3.8081911
H	3.9917782	-2.8017389	-4.3825033
O	2.7341161	-2.7622345	-2.7884830
C	2.7134283	-4.6125066	-4.3586006
H	3.5504694	-5.3214874	-4.4110906
H	1.9203819	-5.0265617	-3.7323319
H	2.3436947	-4.4822571	-5.3843420
