31
-0.00360846 (energy)
C	-0.4010449	0.1931330	0.2075188
O	0.5539840	0.9698916	0.2891960
O	-0.2917130	-1.0418787	-0.3968304
H	0.6127429	-1.1571140	-0.7626558
N	-2.8858613	0.0423691	-0.0598881
C	-2.5082069	1.8357137	-1.6436684
H	-1.6241690	2.2134402	-1.1457297
H	-2.8196471	2.3616167	-2.5370273
C	-3.2111015	0.7603189	-1.2137695
C	-4.4209470	0.2609510	-1.9728889
H	-5.3165843	0.2343857	-1.3394833
H	-4.6264273	0.9157861	-2.8220216
H	-4.2645634	-0.7537878	-2.3604331
C	-2.7120531	-1.6712710	1.5778232
C	-3.5883404	-1.1666310	0.4139755
C	-1.7834515	0.4427946	0.8045441
C	-2.0070489	-0.3983567	2.0916894
H	-3.3027450	-2.1638965	2.3559505
H	-1.9708203	-2.3841173	1.2049351
H	-4.6056573	-0.9250701	0.7580522
H	-3.6736295	-1.9186561	-0.3780929
H	-1.8190187	1.5177858	1.0163064
H	-1.0763268	-0.6075871	2.6268130
H	-2.6622519	0.1650856	2.7657639
C	4.4980540	1.8603731	1.7864274
H	4.7247474	2.7836167	1.2200226
O	4.8416614	1.7590096	2.9695045
C	3.7686555	0.7939177	1.0184895
H	4.3540165	0.4949441	0.1387088
H	3.5872567	-0.0769416	1.6519524
H	2.8126267	1.1844274	0.6452274
