31
-0.00310401 (energy)
C	-1.9701256	0.7927767	-1.4297204
O	-2.5709815	1.7345953	-1.9532232
O	-1.9149928	-0.4561160	-2.0125348
H	-2.4444987	-0.4634964	-2.8400110
N	-1.3399899	-0.2590565	0.7531962
C	-3.6123808	0.3413295	1.3387251
H	-3.6591792	1.1895628	0.6675669
H	-4.4992457	0.1428082	1.9267039
C	-2.5279815	-0.4615300	1.4605547
C	-2.5361537	-1.6525846	2.3936565
H	-1.7220143	-1.6004589	3.1275056
H	-3.4810626	-1.6941795	2.9390686
H	-2.4220472	-2.5964186	1.8454793
C	0.7661409	-0.5937022	-0.2961346
C	-0.1561233	-1.1392011	0.8124421
C	-1.1645663	0.8815428	-0.1362704
C	0.3634707	0.8910341	-0.4178502
H	1.8250652	-0.7199823	-0.0515705
H	0.5657255	-1.1134732	-1.2375661
H	0.3308713	-1.0832032	1.7980255
H	-0.4237387	-2.1859944	0.6313507
H	-1.4897008	1.8109031	0.3456958
H	0.6113323	1.3263086	-1.3902077
H	0.8555788	1.4930550	0.3545067
C	4.6358664	-2.2222999	0.5594996
H	5.0130817	-2.0855935	-0.4718116
O	3.7189948	-1.5098797	0.9835468
C	5.3109346	-3.3031730	1.3564151
H	6.3873691	-3.0995025	1.4329261
H	4.8775817	-3.3679136	2.3567104
H	5.2068339	-4.2697247	0.8457742
