31
-0.00278453 (energy)
C	-0.4010449	0.0831501	-0.2710175
O	0.5539840	-0.2344947	-0.9845487
O	-0.2917130	0.1772741	1.1007086
H	0.6127429	-0.0819223	1.3834180
N	-2.8858613	-0.0730492	-0.0067486
C	-2.5082069	-2.3413154	-0.7679406
H	-1.6241690	-2.0989510	-1.3440307
H	-2.8196471	-3.3779384	-0.7767066
C	-3.2111015	-1.4313147	-0.0515708
C	-4.4209470	-1.8390475	0.7604542
H	-5.3165843	-1.2772194	0.4667576
H	-4.6264273	-2.9018354	0.6179167
H	-4.2645634	-1.6673012	1.8330158
C	-2.7120531	2.2020705	0.6584516
C	-3.5883404	0.9418288	0.8033444
C	-1.7834515	0.4753583	-0.7857434
C	-2.0070489	2.0106345	-0.7008576
H	-3.3027450	3.1222612	0.6960142
H	-1.9708203	2.2355630	1.4622386
H	-4.6056573	1.1190276	0.4221082
H	-3.6736295	0.6318899	1.8506514
H	-1.8190187	0.1212543	-1.8225942
H	-1.0763268	2.5786804	-0.7872205
H	-2.6622519	2.3126791	-1.5258502
C	3.0690647	-3.0061721	1.1098217
H	3.5428030	-3.7235133	0.4129884
O	2.4472359	-3.4182864	2.0954702
C	3.2448225	-1.5547396	0.7612091
H	2.8319024	-1.3533279	-0.2362763
H	2.7476784	-0.9214526	1.4990248
H	4.3128946	-1.3032864	0.7187046
