31
-0.00161931 (energy)
C	-3.8483639	0.6269228	0.8541692
O	-4.4564341	1.6282253	1.2411437
O	-3.7605582	-0.5180906	1.6181587
H	-4.2032506	-0.3781038	2.4839387
N	-1.8835921	-0.1752663	-0.4742558
C	-0.7878442	1.6937598	0.6088629
H	-1.6911773	2.2810378	0.7148683
H	0.1237640	2.1400607	0.9849546
C	-0.7552979	0.4590250	0.0523392
C	0.5351886	-0.3257780	-0.0375813
H	0.7695188	-0.6068637	-1.0720641
H	1.3641752	0.2718987	0.3466337
H	0.4871091	-1.2515845	0.5497106
C	-3.4032615	-1.8215728	-1.2674454
C	-1.9049704	-1.5397206	-1.0377380
C	-3.1829711	0.4828246	-0.5119589
C	-4.0201937	-0.4201827	-1.4595404
H	-3.5733192	-2.4738650	-2.1292308
H	-3.8327174	-2.3006973	-0.3827823
H	-1.3420506	-1.5876091	-1.9824614
H	-1.4620999	-2.2666477	-0.3480779
H	-3.0967025	1.5034527	-0.9025870
H	-5.0908678	-0.3868106	-1.2383583
H	-3.8790334	-0.0697160	-2.4883172
C	3.9445177	-0.2947649	2.1971639
H	3.9822731	-1.3834035	2.0021679
O	3.4056063	0.4624738	1.3821938
C	4.5794312	0.1535973	3.4836063
H	5.6375717	-0.1395603	3.5046805
H	4.4963930	1.2369106	3.5936694
H	4.0962442	-0.3421455	4.3360046
