31
-0.00156955 (energy)
C	0.9605584	-2.3071276	0.5554096
O	1.7406670	-2.9800671	1.2341499
O	-0.2560435	-2.8004388	0.1323623
H	-0.3551335	-3.7359523	0.4154585
N	0.8018462	-0.5481593	-1.2192423
C	2.6418727	-1.7970920	-2.1792097
H	3.0108269	-2.1620915	-1.2290564
H	3.1910164	-2.1051525	-3.0596636
C	1.5502821	-1.0050194	-2.3072672
C	1.0651221	-0.5539631	-3.6676072
H	1.0149127	0.5398061	-3.7398737
H	1.7425508	-0.9135887	-4.4446640
H	0.0628258	-0.9424142	-3.8886250
C	-0.9565772	0.3080478	0.1312119
C	-0.4245414	0.2682038	-1.3153125
C	1.1844335	-0.8517420	0.1534760
C	0.3056057	0.1125807	0.9972874
H	-1.4748501	1.2453050	0.3548656
H	-1.6538494	-0.5187129	0.2952231
H	-0.1992702	1.2806047	-1.6840557
H	-1.1542435	-0.1809793	-1.9979234
H	2.2527184	-0.6663765	0.3150969
H	0.0870877	-0.2786783	1.9950572
H	0.8455076	1.0585750	1.1186774
C	2.7376692	-1.6803690	4.9159641
H	3.3087406	-2.6231765	4.8181168
O	2.2214304	-1.3779307	5.9976484
C	2.6534639	-0.8437242	3.6701660
H	2.1862777	-1.4191204	2.8597938
H	2.0747839	0.0633162	3.8572059
H	3.6613219	-0.5744482	3.3273451
