31
-0.00513687 (energy)
C	-0.1430360	-0.4268882	-0.0690236
O	1.0747430	-0.4083606	-0.2269363
O	-0.8544788	0.7009295	0.2521211
H	-1.7926475	0.4396050	0.4221506
N	-2.3054533	-1.5912241	0.3821069
C	-1.2624493	-1.9317302	2.5556063
H	-0.2525095	-1.9470316	2.1659784
H	-1.3610361	-2.0102499	3.6308885
C	-2.3635202	-1.7908575	1.7880917
C	-3.7501260	-1.7574644	2.3922660
H	-4.3415275	-2.6426521	2.1258887
H	-3.6829717	-1.7232416	3.4816541
H	-4.3120446	-0.8770171	2.0561562
C	-2.7123292	-2.5654377	-1.7736114
C	-3.4216452	-2.0171739	-0.5196354
C	-1.0019918	-1.6708998	-0.3102007
C	-1.3810047	-1.7923103	-1.8096406
H	-2.5205749	-3.6387390	-1.6570224
H	-3.3063300	-2.4271108	-2.6817678
H	-4.0454825	-2.7777033	-0.0434124
H	-4.0635723	-1.1617043	-0.7653192
H	-0.4214328	-2.5444955	0.0146483
H	-1.5291415	-0.7934711	-2.2381959
H	-0.5961075	-2.2913469	-2.3817454
C	3.6666220	0.7043207	1.2991933
H	3.1339734	0.4112581	0.3745406
O	4.8429907	1.0800048	1.2441458
C	2.8635076	0.6069843	2.5659257
H	2.5111736	-0.4229396	2.7114055
H	3.4647690	0.9139597	3.4243123
H	1.9695300	1.2407878	2.4958499
