31
-0.00484027 (energy)
C	-1.9190690	0.7179068	1.4272453
O	-2.7073059	1.5566403	1.8555842
O	-1.6741080	-0.4582994	2.0889029
H	-0.9449392	-0.9335131	1.6200256
N	0.0000000	0.0000000	-0.0000000
C	1.2170659	1.4686310	1.5132002
H	0.3756047	2.1258950	1.6920007
H	2.1217978	1.6896535	2.0652200
C	1.1778371	0.4033745	0.6855708
C	2.3819459	-0.4914714	0.4901473
H	2.8026365	-0.4083084	-0.5199880
H	3.1688375	-0.2196975	1.1968212
H	2.1268853	-1.5464516	0.6509898
C	-1.0971697	-0.1499010	-2.1296737
C	0.0607228	-0.7392267	-1.3001205
C	-1.2106575	0.8444946	0.0760735
C	-2.1127109	0.3099996	-1.0673101
H	-0.7432930	0.7112464	-2.7089273
H	-1.5184954	-0.8761177	-2.8309678
H	1.0254580	-0.5933743	-1.7924408
H	-0.0730272	-1.8159098	-1.1354273
H	-0.9766969	1.9060685	-0.0790657
H	-2.7038288	-0.5413434	-0.7080348
H	-2.8058244	1.0758343	-1.4215642
C	2.0368840	2.2071648	-3.6403485
H	2.7948906	2.9506445	-3.3285043
O	1.8936249	1.1611517	-2.9974290
C	1.2374831	2.5719780	-4.8597530
H	1.9061039	2.7273161	-5.7169946
H	0.5170203	1.7854294	-5.0939568
H	0.7084090	3.5199501	-4.6946986
