31
-0.0046597 (energy)
C	2.7257943	-1.7474443	-0.2489318
O	2.6654020	-2.7289482	-0.9846412
O	2.8121714	-1.8621323	1.1151222
H	2.7539604	-0.9568908	1.5082001
N	2.4019092	0.6783533	0.2469005
C	0.0602996	0.0482587	0.0283890
H	0.2500436	-0.7466878	-0.6815967
H	-0.9680211	0.1720799	0.3435733
C	1.0218141	0.8423500	0.5443249
C	0.6981036	1.9261594	1.5490070
H	0.8475803	2.9326470	1.1380210
H	-0.3463307	1.8497619	1.8584707
H	1.3272527	1.8430113	2.4440865
C	4.3024372	1.5953511	-0.8971580
C	3.3600429	1.8270760	0.3004959
C	2.8135678	-0.3110569	-0.7710654
C	4.2842742	0.0673916	-1.0880998
H	3.9028448	2.0904498	-1.7902099
H	5.3079125	1.9871028	-0.7175209
H	2.8354169	2.7826319	0.2227344
H	3.9110612	1.8226001	1.2495049
H	2.1934983	-0.2468812	-1.6750234
H	4.9565126	-0.4168731	-0.3691650
H	4.5735819	-0.2556842	-2.0902615
C	4.6622550	-0.6546369	-5.1718058
H	4.4355616	-1.7259604	-5.0122474
O	4.3186477	0.1834795	-4.3306714
C	5.3916536	-0.3313058	-6.4455848
H	4.8062925	-0.6677910	-7.3117124
H	5.5730524	0.7429932	-6.5201018
H	6.3476823	-0.8703819	-6.4805053
