31
-0.0045349 (energy)
C	1.0442654	0.8944061	2.4330840
O	1.6653311	1.9067341	2.7457094
O	0.2419973	0.2265549	3.3228022
H	-0.0805167	-0.6019242	2.8904041
N	0.6242365	-1.0919304	0.9793686
C	2.7652762	-1.7833964	1.9098122
H	3.1360809	-0.7739270	2.0343028
H	3.4111373	-2.5767979	2.2640634
C	1.5605606	-2.0830805	1.3805383
C	1.0879414	-3.5142401	1.2492727
H	1.0212732	-3.8360750	0.2022543
H	1.7841027	-4.1861972	1.7555143
H	0.0949662	-3.6503572	1.6957947
C	-0.4546838	-0.0263933	-0.8813634
C	-0.3833082	-1.3513306	-0.0967457
C	1.0162702	0.3328746	1.0092037
C	-0.0753734	1.0395803	0.1632767
H	0.2796453	-0.0325994	-1.6956487
H	-1.4418561	0.1445471	-1.3206693
H	-0.0738899	-2.1826739	-0.7350991
H	-1.3554770	-1.6087545	0.3424354
H	2.0099338	0.4908033	0.5693900
H	-0.9384919	1.2806773	0.7958766
H	0.2948655	1.9707369	-0.2706309
C	1.5298330	-4.8798868	-2.6038087
H	2.4872814	-5.0850163	-3.1193641
O	1.3336980	-3.7796277	-2.0756298
C	0.5393575	-6.0103860	-2.6066140
H	0.9772067	-6.8971763	-2.1291855
H	-0.3719378	-5.7215311	-2.0787121
H	0.2938432	-6.2947174	-3.6384530
