31
-0.00450505 (energy)
C	-0.4252175	0.1037912	0.1259943
O	0.2232211	1.1463558	0.0968078
O	0.1326465	-1.1113483	-0.1797533
H	-0.5848830	-1.7914191	-0.1837893
N	-2.5672941	-1.1793181	0.1064146
C	-2.6630583	-0.3002311	-2.1620511
H	-2.1125448	0.6023113	-1.9288678
H	-2.9410237	-0.4358111	-3.1995817
C	-2.9780260	-1.2462338	-1.2525704
C	-3.7337069	-2.4976863	-1.6419679
H	-4.7442976	-2.5233578	-1.2149815
H	-3.8347686	-2.5511880	-2.7279566
H	-3.2132149	-3.4016878	-1.3017049
C	-3.2774231	-0.8402102	2.3741192
C	-3.3530618	-1.8347827	1.1988395
C	-1.8794046	0.0325981	0.5990776
C	-1.9469668	-0.0999047	2.1432893
H	-4.1144641	-0.1338054	2.3222240
H	-3.3198768	-1.3404119	3.3460839
H	-4.3852282	-2.0158224	0.8886406
H	-2.9074753	-2.8018876	1.4642075
H	-2.3830394	0.9499313	0.2665166
H	-1.1047088	-0.7040811	2.5022548
H	-1.8940955	0.8754695	2.6314030
C	4.4761801	1.7473934	0.9936245
H	4.3760255	1.7743348	2.0953622
O	5.3330976	2.4390922	0.4321467
C	3.5185503	0.8348946	0.2799235
H	2.4831574	1.1267727	0.5008663
H	3.6879307	0.8707870	-0.7983152
H	3.6406509	-0.1957458	0.6386508
