31
-0.00369157 (energy)
C	-1.7121090	0.4923192	1.8025848
O	-1.1519024	0.3682748	2.8906441
O	-2.7521516	1.3728819	1.6594354
H	-3.1669296	1.3709565	0.7605263
N	-1.3308643	0.4910765	-0.6784886
C	-3.7258050	0.3044159	-1.0373027
H	-3.9044273	-0.3787520	-0.2148884
H	-4.5853897	0.5528186	-1.6451120
C	-2.4886265	0.7487633	-1.4012535
C	-2.3155439	1.6164118	-2.6291981
H	-1.6406650	1.1479925	-3.3558726
H	-3.2786215	1.7752889	-3.1172434
H	-1.8946269	2.5966665	-2.3757136
C	0.9441744	0.3485906	0.0089746
C	0.0375740	0.8291503	-1.1409710
C	-1.3092715	-0.3253450	0.5518649
C	0.1489766	-0.8095653	0.6472706
H	1.9308936	0.0410042	-0.3479639
H	1.0862065	1.1494117	0.7435515
H	0.2722084	0.2998654	-2.0761046
H	0.1426697	1.9032068	-1.3264789
H	-2.0075211	-1.1695557	0.4605350
H	0.4322251	-1.0042927	1.6825099
H	0.2692400	-1.7296163	0.0645365
C	4.9802912	1.0871971	-1.3990219
H	5.4706301	1.1608152	-0.4097135
O	3.8351798	0.6307680	-1.4906983
C	5.7985198	1.5710161	-2.5632810
H	6.7366264	1.0036387	-2.6272013
H	5.2394168	1.4620694	-3.4950058
H	6.0743127	2.6241131	-2.4192726
