31
-0.0037539 (energy)
C	-1.9755834	1.3302471	0.7928350
O	-2.4912457	1.8412951	1.7858172
O	-2.0728254	1.9452308	-0.4277838
H	-1.6650528	1.4375681	-1.1734929
N	0.0000000	0.0000000	-0.0000000
C	-1.1565724	-0.4572378	-2.0862897
H	-2.1347911	-0.5920373	-1.6391803
H	-1.0952762	-0.6166607	-3.1543950
C	-0.0187228	-0.2271978	-1.3701224
C	1.3242002	-0.1579048	-2.0646552
H	2.0143923	-0.9152279	-1.6734639
H	1.2042603	-0.3320310	-3.1352826
H	1.7999957	0.8205484	-1.9283739
C	0.7145161	0.3541269	2.2433836
C	1.2351219	0.0932424	0.8164479
C	-1.2143603	-0.0163985	0.8401430
C	-0.6800442	-0.3063001	2.2545412
H	1.3844030	-0.0538834	3.0052290
H	0.6159403	1.4307288	2.4231111
H	1.8026036	-0.8477181	0.7692391
H	1.8878883	0.8982365	0.4629848
H	-1.9010517	-0.8050272	0.5008715
H	-1.3425416	0.1045411	3.0175455
H	-0.5949624	-1.3889318	2.4001635
C	2.0504208	-2.4973916	5.4351245
H	3.0078692	-3.0407348	5.5476123
O	1.8542857	-1.7861790	4.4432980
C	1.0599452	-2.6964636	6.5479617
H	1.4977943	-2.3802777	7.5041842
H	0.1486499	-2.1264226	6.3551643
H	0.8144311	-3.7620003	6.6487965
