31
-0.00402141 (energy)
C	0.2536917	0.1953513	-0.3459960
O	0.0744878	1.0268826	0.5425607
O	-0.2629442	-1.0677062	-0.2221252
H	-0.0297260	-1.6781150	-0.9658271
N	0.4513267	-0.0956378	-2.8314215
C	1.3668432	-2.3191601	-2.4892100
H	1.9652365	-2.0566954	-1.6243243
H	1.4553618	-3.3393987	-2.8374908
C	0.6316569	-1.4210094	-3.2056888
C	-0.0900488	-1.8508209	-4.4646656
H	0.2488509	-1.2748053	-5.3343133
H	0.0986090	-2.9067829	-4.6654166
H	-1.1737036	-1.7072108	-4.3786834
C	-0.1577200	2.2059699	-2.8121043
C	-0.2088443	0.9303272	-3.6754460
C	1.0677058	0.4967390	-1.6272842
C	1.0929097	2.0058422	-1.9306504
H	-0.1075620	3.1121189	-3.4220284
H	-1.0497832	2.2748275	-2.1791963
H	0.3411773	1.0691601	-4.6177158
H	-1.2357023	0.6426716	-3.9241879
H	2.0825477	0.0988801	-1.4844920
H	1.0675763	2.5926718	-1.0114887
H	2.0033416	2.2532122	-2.4878379
C	3.4201368	-2.2744654	1.1600884
H	4.3062509	-2.2651130	1.8228834
O	2.9103280	-1.2102344	0.7919587
C	2.9199792	-3.6368771	0.7692500
H	2.6561281	-4.2137279	1.6657279
H	2.0477009	-3.5515041	0.1177758
H	3.7120525	-4.1964342	0.2541488
