31
-0.00750551 (energy)
C	-0.0280628	-0.2730856	-0.3832383
O	0.4058123	0.8319184	-0.7054336
O	-0.3442063	-0.5348408	0.9240905
H	-0.6435931	-1.4632530	1.0929109
N	-1.4742664	-2.1774638	-1.1467260
C	-0.5529707	-3.5718378	0.6157343
H	0.4613630	-3.1999360	0.5273836
H	-0.7090321	-4.3622870	1.3374382
C	-1.5766998	-3.1888281	-0.2002301
C	-2.9388131	-3.8372044	-0.0782668
H	-3.2381996	-4.3147886	-1.0191255
H	-2.9233331	-4.6033866	0.6986977
H	-3.7136726	-3.1051190	0.1785762
C	-1.9284063	-0.6748065	-2.9368342
C	-2.5225151	-1.8569213	-2.1463431
C	-0.2280880	-1.4255539	-1.3966285
C	-0.4037807	-0.8862900	-2.8278466
H	-2.2820347	-0.6542857	-3.9713172
H	-2.2049410	0.2760875	-2.4673453
H	-2.7068535	-2.7188006	-2.8042596
H	-3.4690223	-1.5941465	-1.6624739
H	0.6411111	-2.0946854	-1.3235438
H	0.1676385	0.0310118	-2.9758547
H	-0.0645027	-1.6390615	-3.5480977
C	3.3003632	-0.3839678	-2.0436859
H	3.4452509	0.2710705	-2.9237514
O	2.6823056	-1.4483259	-2.1583979
C	3.8970061	0.1186114	-0.7589644
H	3.4719185	1.0983433	-0.5030878
H	3.7072189	-0.5871330	0.0525050
H	4.9791174	0.2636345	-0.8765094
