31
-0.00355808 (energy)
C	-0.5180632	0.8602170	-2.3005894
O	-0.3094599	1.7875954	-3.0813233
O	-0.6425110	-0.4210515	-2.7700943
H	-0.8524061	-1.0919098	-2.0729750
N	0.0000000	0.0000000	-0.0000000
C	-1.8110371	-1.6057725	-0.2024105
H	-2.4917368	-0.9355374	-0.7146823
H	-2.1961098	-2.5896621	0.0293267
C	-0.5811656	-1.2351775	0.2564915
C	0.2629280	-2.2034424	1.0568592
H	0.4957929	-1.8015934	2.0504513
H	-0.2699752	-3.1462986	1.1909671
H	1.2158844	-2.4169965	0.5582679
C	1.4654925	1.8764295	0.0073006
C	1.2604648	0.4771894	0.6199404
C	-0.6693658	1.0647228	-0.7740122
C	0.0331432	2.3540076	-0.3111034
H	1.9963808	2.5480723	0.6875085
H	2.0470548	1.8063519	-0.9189636
H	1.1562035	0.5364298	1.7132340
H	2.0950285	-0.1958400	0.3972511
H	-1.7434479	1.0867396	-0.5406707
H	-0.0004313	3.1207290	-1.0862679
H	-0.4575474	2.7359068	0.5910673
C	2.9756552	-4.9195835	-1.1343569
H	3.7822529	-4.6516949	-1.8430308
O	2.5245910	-4.0693857	-0.3586528
C	2.5039031	-6.3450846	-1.2012502
H	3.3409442	-7.0292613	-1.0080891
H	1.7108568	-6.5199726	-0.4711348
H	2.1341694	-6.5735145	-2.2096798
