31
-0.00334558 (energy)
C	2.5135535	-0.4319160	-3.1495805
O	3.3177368	-0.9116326	-3.9472349
O	1.2763496	-0.0273177	-3.5775964
H	0.7162847	0.3852972	-2.8732112
N	1.6834358	-0.5736068	-0.7848601
C	0.5551071	1.5592335	-1.0627044
H	1.3404875	2.0201264	-1.6507052
H	-0.2917704	2.1881300	-0.8233105
C	0.6420012	0.3082370	-0.5260736
C	-0.4555220	-0.2189823	0.3728714
H	-0.0671284	-0.4788193	1.3651260
H	-1.2323214	0.5365415	0.5021579
H	-0.9209256	-1.1204621	-0.0431315
C	3.1466822	-2.4512211	-0.7381303
C	1.8751739	-1.8699794	-0.0895460
C	2.8335678	-0.2373723	-1.6479492
C	3.9382338	-1.2035017	-1.1827975
H	3.7067570	-3.0857438	-0.0457963
H	2.8862670	-3.0562442	-1.6140423
H	2.0188811	-1.7132077	0.9895470
H	1.0087761	-2.5263827	-0.2220044
H	3.1279408	0.8111848	-1.4980894
H	4.6457336	-1.4091764	-1.9871674
H	4.4773501	-0.7644644	-0.3359587
C	1.5316380	-3.5960018	3.4812195
H	0.5802012	-3.0917026	3.7362354
O	2.4118476	-2.9840340	2.8658020
C	1.6463721	-5.0252487	3.9319605
H	0.8377305	-5.6253991	3.4938223
H	2.6125442	-5.4419119	3.6395908
H	1.5322100	-5.0876130	5.0223233
