31
-0.00321481 (energy)
C	-1.8244029	1.4204466	1.0377344
O	-1.4381849	2.5882515	1.0251375
O	-3.1625594	1.1363296	0.9590839
H	-3.3787437	0.1721972	1.0206879
N	-1.2546314	-0.9047621	0.2828575
C	-2.9310515	-1.7973622	1.7968626
H	-2.7272205	-1.1029351	2.6038405
H	-3.6789330	-2.5529085	1.9964745
C	-2.2239760	-1.8365929	0.6310922
C	-2.5035661	-2.9084753	-0.4001775
H	-1.6089484	-3.5100711	-0.6018598
H	-3.2874239	-3.5789848	-0.0439018
H	-2.8299417	-2.4768533	-1.3538578
C	0.5016122	0.2493493	-0.8362245
C	-0.3687334	-1.0208810	-0.9014180
C	-0.8586079	0.2171165	1.1576912
C	0.5543479	0.5844110	0.6691124
H	1.4920330	0.0905463	-1.2715146
H	0.0214848	1.0697396	-1.3816860
H	0.2504347	-1.9274315	-0.8345761
H	-0.9474210	-1.0760179	-1.8293923
H	-0.8488998	-0.1051348	2.2087123
H	0.7790435	1.6333401	0.8669218
H	1.2939320	-0.0421970	1.1799098
C	3.6048695	1.5097954	-2.9646032
H	3.5090420	2.4666564	-2.4170477
O	3.4867876	0.4367048	-2.3624858
C	3.8787439	1.6327651	-4.4373386
H	4.8094423	2.1917174	-4.6029276
H	3.9576154	0.6445362	-4.8953338
H	3.0761258	2.2023331	-4.9243805
