31
-0.00466194 (energy)
C	3.4247479	-1.4485778	-1.6115471
O	4.4929104	-2.0428704	-1.7491574
O	2.3523891	-1.7664395	-2.4031162
H	1.5514485	-1.2054186	-2.2487405
N	1.9012606	-0.3965104	0.0835089
C	0.6807810	0.7000736	-1.7073746
H	1.5538627	0.9284316	-2.3078498
H	-0.2655303	1.0618892	-2.0863289
C	0.7363037	0.1084418	-0.4796105
C	-0.5222732	-0.0773859	0.3401894
H	-0.4458119	0.4323614	1.3083037
H	-1.3821572	0.3345551	-0.1907085
H	-0.7204556	-1.1366930	0.5424686
C	3.4808830	-1.3401519	1.5944831
C	2.0096127	-0.8968253	1.4758997
C	3.2200907	-0.3167033	-0.5761108
C	4.2216560	-0.4361784	0.5869247
H	3.8588944	-1.2379516	2.6154100
H	3.5884597	-2.3899909	1.2989222
H	1.7795007	-0.0962980	2.1941442
H	1.3148210	-1.7232014	1.6587186
H	3.3258889	0.6439737	-1.1000306
H	5.1690672	-0.8580624	0.2488495
H	4.4047333	0.5547627	1.0171042
C	4.6432959	3.2464688	-2.3190283
H	5.4118064	3.1870424	-1.5250239
O	3.5646421	2.6582990	-2.1827398
C	5.0171324	4.0696577	-3.5197299
H	5.9277610	3.6681913	-3.9840867
H	4.2041977	4.0732580	-4.2489081
H	5.2444600	5.0999174	-3.2152623
