31
-0.00993675 (energy)
C	0.1584986	-0.4166643	-0.1733504
O	-1.0656521	-0.4169156	-0.2071623
O	0.8331152	0.6936927	0.3151998
H	1.8033131	0.5684986	0.3494218
N	0.5220821	-2.8655767	-0.4335788
C	1.1275338	-2.7437211	1.9065497
H	1.4554228	-1.7126520	1.8608293
H	1.1952084	-3.2243890	2.8735123
C	0.6123927	-3.4138157	0.8479841
C	0.1047325	-4.8313856	0.9890150
H	0.6050668	-5.5146575	0.2913968
H	0.2804363	-5.1933669	2.0039097
H	-0.9730056	-4.8933324	0.7928418
C	-0.1625798	-2.3897362	-2.6560006
C	-0.1301617	-3.5071012	-1.5947330
C	1.0458640	-1.5439244	-0.7340677
C	1.0416326	-1.4975126	-2.2878212
H	-0.0971683	-2.7818605	-3.6749951
H	-1.0893763	-1.8162147	-2.5625254
H	0.4492990	-4.3745237	-1.9448320
H	-1.1387063	-3.8534091	-1.3462080
H	2.0647876	-1.4434836	-0.3298607
H	0.9572621	-0.4803445	-2.6817533
H	1.9780964	-1.9304147	-2.6581555
C	3.4755843	0.9175666	2.3405449
H	2.6689866	1.6652405	2.4628832
O	3.9266487	0.6708859	1.2164000
C	3.9473365	0.2627477	3.6085118
H	3.1102953	-0.2466231	4.1044457
H	4.7403828	-0.4569948	3.3949118
H	4.3170701	1.0218585	4.3105526
