31
-0.00680786 (energy)
C	3.4029403	2.0292293	0.4341517
O	3.0247176	2.9331080	-0.3004498
O	4.1373523	2.3298565	1.5729861
H	4.3412564	1.5419503	2.1168202
N	1.8933665	0.2353897	-0.4027533
C	0.7693523	0.5772018	1.7132284
H	1.6550210	0.9252386	2.2301099
H	-0.1414876	0.5421132	2.2961329
C	0.7511114	0.2407165	0.4012059
C	-0.5321565	-0.1711776	-0.2848554
H	-0.4469671	-1.1625842	-0.7471559
H	-1.3502204	-0.2022882	0.4374446
H	-0.8098710	0.5368846	-1.0756545
C	3.3562668	0.3410036	-2.2690633
C	1.9131322	-0.0135223	-1.8597731
C	3.2080490	0.5295433	0.1417549
C	4.1765923	0.0804208	-0.9880836
H	3.7057066	-0.2532830	-3.1182424
H	3.4162799	1.3998788	-2.5370148
H	1.6804997	-1.0651931	-2.0847988
H	1.1827851	0.6126893	-2.3825619
H	3.3693399	-0.0477025	1.0650367
H	5.1277456	0.6207527	-0.9713389
H	4.3890048	-0.9883406	-0.8691448
C	2.5907701	0.0391100	4.5343860
H	1.4859310	0.0983992	4.5144352
O	3.2179355	-0.1906928	3.4942580
C	3.2251392	0.2539305	5.8799365
H	2.8510160	-0.4892328	6.5967260
H	4.3121028	0.1784103	5.8065626
H	2.9494767	1.2410922	6.2740624
