31
-0.00269987 (energy)
C	0.4134923	2.5377868	-2.0724454
O	1.6267117	2.6568757	-2.2503348
O	-0.4501615	2.1743374	-3.0881290
H	0.0459401	2.0282683	-3.9234992
N	0.4094672	2.4283343	0.3987351
C	0.0298374	0.0635931	0.0422908
H	-0.5088547	0.1986981	-0.8875218
H	0.1535855	-0.9558905	0.3839724
C	0.5486535	1.0866448	0.7628251
C	1.3223133	0.8344509	2.0380052
H	0.8827914	1.3651765	2.8920156
H	1.3272366	-0.2327441	2.2684883
H	2.3650807	1.1643510	1.9490192
C	0.7496729	4.7680897	0.1682467
C	1.0279608	3.5714647	1.1008324
C	-0.3467192	2.8247390	-0.7801045
C	-0.5289463	4.3558710	-0.5914435
H	0.6261081	5.7041600	0.7207997
H	1.5784921	4.8919511	-0.5360079
H	0.5705966	3.7227953	2.0902574
H	2.1028497	3.4202591	1.2481698
H	-1.3084356	2.3041782	-0.8296344
H	-0.6594282	4.8866363	-1.5389012
H	-1.4219338	4.5294724	0.0195703
C	4.6528497	1.1987679	-1.6740672
H	4.4731787	0.9405922	-2.7350321
O	5.5685118	1.9718435	-1.3708688
C	3.7236255	0.5520616	-0.6854363
H	3.7891248	-0.5412898	-0.7650577
H	3.9722379	0.8615783	0.3318975
H	2.6839193	0.8244370	-0.9104609
