31
-0.00316835 (energy)
C	2.6828068	-1.6002782	-1.0714594
O	3.4177353	-1.7547855	-0.0948656
O	2.0937476	-2.6636435	-1.7286275
H	2.3428468	-3.5116872	-1.2995963
N	2.2158202	0.8143533	-0.8064925
C	0.0627954	0.0526911	-0.0018017
H	0.0485048	-0.8395348	-0.6155791
H	-0.7961994	0.2121504	0.6370312
C	1.0863755	0.9399300	0.0063113
C	1.0663507	2.1519442	0.9112180
H	1.1707996	3.0851398	0.3433982
H	0.1239744	2.1936093	1.4609842
H	1.8824778	2.1215967	1.6441108
C	4.4160885	0.9936609	-1.6839823
C	3.3944230	1.7042867	-0.7727841
C	2.3530864	-0.2777421	-1.7589120
C	3.5394555	0.1739310	-2.6542803
H	5.0695560	1.7003663	-2.2039423
H	5.0420441	0.3216137	-1.0883399
H	3.1460125	2.7049584	-1.1574830
H	3.7807518	1.8231291	0.2453436
H	1.4357068	-0.4169140	-2.3397570
H	4.0693699	-0.6669662	-3.1108940
H	3.1491344	0.8058077	-3.4600615
C	4.8916746	2.4644821	3.3531712
H	5.2688898	1.5029871	3.7504356
O	3.9748029	2.4755077	2.5241736
C	5.5667427	3.6950677	3.8907771
H	6.6431772	3.6594929	3.6761378
H	5.1333898	4.5937192	3.4466965
H	5.4626420	3.7361155	4.9831559
