31
-0.00305241 (energy)
C	-1.3209415	1.8370616	0.9995235
O	-0.3972610	2.4723309	1.5103808
O	-2.5750534	2.3838501	0.8050188
H	-2.5952154	3.3145695	1.1191065
N	0.0000000	0.0000000	0.0000000
C	-0.3986643	1.1806842	-2.0761078
H	-1.3562195	1.5822224	-1.7681319
H	-0.0634555	1.4430415	-3.0712010
C	0.3754819	0.3997545	-1.2850193
C	1.7213271	-0.1043862	-1.7570132
H	1.7809701	-1.1995083	-1.7204980
H	1.8991185	0.2103747	-2.7872401
H	2.5385624	0.2887474	-1.1392035
C	0.0532517	-0.7394729	2.2569147
C	0.8427659	-0.7762918	0.9323834
C	-1.2865026	0.3726290	0.5698033
C	-1.4122387	-0.5551747	1.8093739
H	0.1995072	-1.6458044	2.8518797
H	0.3711867	0.1196394	2.8561650
H	0.9776197	-1.8092598	0.5776490
H	1.8360842	-0.3286287	1.0458474
H	-2.1002106	0.2094330	-0.1440466
H	-2.0533324	-0.1348100	2.5895699
H	-1.8482263	-1.5085762	1.4902463
C	4.9858026	1.6066715	-0.7960877
H	4.4802420	1.8663824	-1.7455831
O	4.3987765	0.9261211	0.0525958
C	6.3850289	2.1339946	-0.6438573
H	6.3858021	3.2296603	-0.7184428
H	6.8051790	1.8312169	0.3175875
H	7.0199684	1.7605092	-1.4582122
