31
-0.00295761 (energy)
C	2.8874744	-0.1899730	-1.5914677
O	3.2440666	-1.3681007	-1.5406228
O	2.5587046	0.4319390	-2.7808971
H	2.6460439	-0.1962574	-3.5312552
N	2.3580266	0.1414109	0.8019814
C	0.0596246	-0.0103340	0.0553262
H	0.2561201	0.4075458	-0.9243473
H	-0.9660602	-0.2845005	0.2655883
C	1.0187004	-0.2085409	0.9912013
C	0.6903870	-0.8287476	2.3312720
H	0.9827426	-0.1764109	3.1638391
H	-0.3831882	-1.0128602	2.4060439
H	1.2066315	-1.7871398	2.4694467
C	4.7257216	0.2434876	0.9660563
C	3.4540220	-0.1322298	1.7538937
C	2.8127613	0.7869207	-0.4207821
C	4.2338176	1.2943439	-0.0516136
H	5.5176170	0.6272817	1.6159905
H	5.1102058	-0.6352664	0.4385898
H	3.3521672	0.4812124	2.6618360
H	3.4688321	-1.1839102	2.0600092
H	2.1493671	1.6092729	-0.7071038
H	4.8879453	1.3923936	-0.9227718
H	4.1426291	2.2812210	0.4159978
C	3.4968682	2.1470785	-5.9122453
H	3.8634743	3.0188033	-5.3375465
O	2.9541857	1.2029661	-5.3273012
C	3.7108967	2.2165966	-7.3983264
H	4.7812046	2.3206208	-7.6211874
H	3.3205016	1.3193257	-7.8831699
H	3.2136708	3.1047868	-7.8102705
