31
-0.00261481 (energy)
C	-3.3761135	-1.8232735	-1.0030246
O	-2.9442147	-2.0650128	-2.1311884
O	-4.1539357	-2.7240926	-0.3007968
H	-4.2856892	-3.5443723	-0.8252762
N	-1.8980996	0.0783642	-0.4391290
C	-0.7570095	-1.5459800	0.9474464
H	-1.6460146	-2.1302242	1.1507263
H	0.1620295	-1.8926384	1.4019815
C	-0.7493091	-0.4425998	0.1616553
C	0.5309019	0.3143094	-0.1147209
H	0.4520084	1.3682453	0.1805382
H	1.3577102	-0.1322316	0.4411936
H	0.7908194	0.2915192	-1.1805726
C	-3.3774567	1.2266647	-1.9007132
C	-1.9287065	1.2238688	-1.3713869
C	-3.2082204	-0.5193486	-0.2271380
C	-4.1865197	0.5590143	-0.7686441
H	-3.7323854	2.2354031	-2.1315450
H	-3.4422497	0.6230704	-2.8116103
H	-1.6930354	2.1643446	-0.8508014
H	-1.2055022	1.1008977	-2.1849047
H	-3.3825253	-0.7305291	0.8327468
H	-5.1370193	0.1366487	-1.1071278
H	-4.4003260	1.2728323	0.0348811
C	3.5751248	-2.4006482	1.2197193
H	4.0390639	-2.7004841	0.2608440
O	3.1380325	-1.2535070	1.3647349
C	3.5291903	-3.4680353	2.2769104
H	4.5452320	-3.8155665	2.5069714
H	3.0572594	-3.0867150	3.1849042
H	2.9717500	-4.3397920	1.9093319
