31
-0.00962335 (energy)
C	0.4153456	-0.1013267	0.2392531
O	-0.5345394	-0.0545585	1.0223618
O	0.2653944	0.1114549	-1.1178929
H	-0.6739241	0.3034932	-1.3325981
N	2.2582927	0.0708730	1.8801742
C	2.4233604	2.3494045	1.0775416
H	2.0832107	2.1162627	0.0760741
H	2.6700891	3.3847387	1.2740481
C	2.5353393	1.4278887	2.0640729
C	2.9835567	1.8187232	3.4549664
H	3.8703079	1.2543044	3.7700646
H	3.2306453	2.8818066	3.4841689
H	2.1975599	1.6353482	4.1984036
C	1.6862330	-2.2037266	2.2573536
C	2.2811805	-0.9560775	2.9418101
C	1.8591057	-0.4577624	0.5840988
C	2.0064572	-1.9938992	0.7622450
H	2.1085725	-3.1331562	2.6505465
H	0.6021171	-2.2290413	2.4067173
H	3.3084869	-1.1439029	3.2888087
H	1.6848058	-0.6525762	3.8090943
H	2.5025552	-0.0779585	-0.2159368
H	1.3515069	-2.5621946	0.0955413
H	3.0420831	-2.2744195	0.5393339
C	-3.7221243	0.4047901	-0.7993000
H	-3.5120315	1.4912203	-0.8099452
O	-2.8552342	-0.3976490	-1.1634499
C	-5.0939935	0.0166388	-0.3234939
H	-5.8596593	0.4852473	-0.9561146
H	-5.2134333	-1.0686362	-0.3456083
H	-5.2577431	0.3852796	0.6978304
