31
-0.0025613 (energy)
C	-3.3761135	-2.0563712	-0.3189386
O	-2.9442147	-2.6693866	-1.2963861
O	-4.1539357	-2.6626883	0.6490380
H	-4.2856892	-3.6128816	0.4367408
N	-1.8980996	-0.0765527	-0.4394485
C	-0.7570095	-1.1287002	1.4190647
H	-1.6460146	-1.6081844	1.8099086
H	0.1620295	-1.2989924	1.9647521
C	-0.7493091	-0.3606184	0.3032844
C	0.5309019	0.2561173	-0.2153025
H	0.4520084	1.3474777	-0.2983170
H	1.3577102	0.0266400	0.4598122
H	0.7908194	-0.1298412	-1.2090808
C	-3.3774567	0.5026056	-2.2056302
C	-1.9287065	0.6810185	-1.7072699
C	-3.2082204	-0.5657138	-0.0358122
C	-4.1865197	0.2624098	-0.9134833
H	-3.7323854	1.3715604	-2.7675500
H	-3.4422497	-0.3761327	-2.8551520
H	-1.6930354	1.7428274	-1.5397413
H	-1.2055022	0.2872241	-2.4296680
H	-3.3825253	-0.4016566	1.0323817
H	-5.1370193	-0.2502522	-1.0870964
H	-4.4003260	1.2080012	-0.4025567
C	3.5976549	-1.3536248	2.7375873
H	4.6570191	-1.0720330	2.8893653
O	2.9926836	-0.9700879	1.7301543
C	2.9939859	-2.2047482	3.8193685
H	3.0526604	-1.6854698	4.7852640
H	1.9514950	-2.4338626	3.5885089
H	3.5621162	-3.1383256	3.9264882
