31
-0.00294914 (energy)
C	-1.6039915	-1.9084672	0.1699702
O	-2.4801247	-1.3411059	0.8243553
O	-1.4948986	-3.2850711	0.1183288
H	-2.2019832	-3.7049462	0.6559463
N	-0.9180959	-0.0086837	-1.2580001
C	-2.1748925	-1.1695013	-2.9715161
H	-1.9780934	-2.1571796	-2.5730744
H	-2.7783993	-1.1230962	-3.8687524
C	-1.7208337	-0.0276829	-2.4013794
C	-2.0568542	1.3271962	-2.9841558
H	-1.1534476	1.9022517	-3.2236358
H	-2.6353143	1.2071822	-3.9023237
H	-2.6530633	1.9294533	-2.2870637
C	0.1747552	0.6640477	0.7411069
C	-0.4705491	1.2080785	-0.5498944
C	-0.4786334	-1.2375613	-0.6135237
C	0.6378149	-0.7562404	0.3534500
H	0.9987918	1.2935784	1.0896258
H	-0.5747371	0.6078716	1.5369481
H	0.2578604	1.7714368	-1.1524656
H	-1.3094360	1.8763968	-0.3272354
H	-0.0993241	-1.9573725	-1.3458703
H	0.7674299	-1.4190276	1.2138723
H	1.5860350	-0.7241147	-0.1949556
C	4.6264948	-0.8842865	-0.4241104
H	4.4587118	-1.6349767	0.3714372
O	3.7283473	-0.0907133	-0.7267403
C	5.9832498	-0.9194800	-1.0699086
H	6.1631430	-1.9063145	-1.5169466
H	6.0605311	-0.1483501	-1.8392999
H	6.7651839	-0.7666284	-0.3142442
