31
-0.00252287 (energy)
C	-0.1643843	0.1013267	0.4502575
O	1.0666424	0.0545585	0.4395792
O	-0.9218716	-0.1114549	-0.6857633
H	-0.3403218	-0.3034932	-1.4540194
N	-0.5213998	-0.0708729	2.8918996
C	-1.1637712	-2.3494045	2.3831510
H	-1.5469323	-2.1162627	1.3973383
H	-1.2264643	-3.3847387	2.6922778
C	-0.6154219	-1.4278886	3.2108563
C	-0.0647272	-1.8187231	4.5644512
H	-0.5414768	-1.2543042	5.3758230
H	-0.2352370	-2.8818064	4.7456471
H	1.0152536	-1.6353480	4.6287280
C	0.1592695	2.2037267	2.8131228
C	0.1434736	0.9560777	3.7198718
C	-1.0487061	0.4577625	1.6424558
C	-1.0470737	1.9938992	1.8736394
H	0.0884782	3.1331564	3.3858005
H	1.0857596	2.2290415	2.2306857
H	-0.4204424	1.1439031	4.6460280
H	1.1578026	0.6525764	4.0009077
H	-2.0558700	0.0779585	1.4431944
H	-0.9739016	2.5621946	0.9419207
H	-1.9836937	2.2744195	2.3685671
C	3.4427685	0.4047900	4.0732960
H	3.3469411	1.4912202	4.2605642
O	3.3246865	-0.3976490	5.0061199
C	3.7166431	0.0166386	2.6473194
H	4.6473415	0.4852471	2.3005439
H	3.7955146	-1.0686364	2.5549388
H	2.9140251	0.3852793	1.9948459
