31
-0.00218642 (energy)
C	2.3557784	-0.7502442	0.0785542
O	2.1660201	-1.9210274	0.4117007
O	3.5583522	-0.3169566	-0.4465025
H	4.1928471	-1.0643155	-0.5110574
N	0.0000000	0.0000000	0.0000000
C	0.2953985	-0.1506296	-2.3985876
H	1.3514343	0.0884670	-2.3737836
H	-0.1351566	-0.3313040	-3.3750024
C	-0.4781015	-0.2421031	-1.2902984
C	-1.9414149	-0.6138513	-1.3838547
H	-2.5849904	0.1506758	-0.9305427
H	-2.2335014	-0.7256951	-2.4299083
H	-2.1500473	-1.5622922	-0.8729253
C	0.2729225	0.0017063	2.3598369
C	-0.7780726	-0.1703925	1.2441027
C	1.3760810	0.4093375	0.2397106
C	1.3543097	0.8944952	1.7152826
H	-0.1524257	0.4450034	3.2650316
H	0.7002079	-0.9713552	2.6222032
H	-1.5704088	0.5892635	1.3226581
H	-1.2533310	-1.1562630	1.2904324
H	1.6791441	1.2071388	-0.4458555
H	2.3301707	0.8122214	2.2024580
H	1.0549995	1.9485384	1.7328448
C	5.7912484	-4.9418244	-0.7639046
H	6.0179418	-5.2849920	0.2634361
O	6.1348558	-5.6246429	-1.7353495
C	5.0618499	-3.6312512	-0.8611345
H	5.6472109	-2.8367120	-0.3793600
H	4.8804511	-3.3713164	-1.9061728
H	4.1058211	-3.6904707	-0.3241843
