31
-8.3242e-05 (energy)
C	2.5088741	1.7251700	-2.5412332
O	1.7542946	1.4949225	-3.4874488
O	3.2257316	2.9019794	-2.4371114
H	3.0317890	3.4896572	-3.2002087
N	1.6858054	-0.0076934	-0.9796726
C	0.6197117	1.8598182	0.1334388
H	1.3799192	2.5778136	-0.1486271
H	-0.2010247	2.2361094	0.7302667
C	0.6491705	0.5555358	-0.2311902
C	-0.4598420	-0.3943402	0.1638572
H	-0.0766438	-1.2558639	0.7252120
H	-1.1893071	0.1215503	0.7913838
H	-0.9883508	-0.7850151	-0.7148736
C	2.9454571	-1.4214518	-2.4142055
C	1.7221474	-1.3989290	-1.4750157
C	2.8410535	0.7751580	-1.3933907
C	3.8555522	-0.3031972	-1.8636111
H	3.4402699	-2.3970592	-2.4269039
H	2.6349873	-1.1806199	-3.4359032
H	1.8438439	-2.1115100	-0.6452789
H	0.8023791	-1.6606969	-2.0093017
H	3.2361118	1.3704416	-0.5639924
H	4.5671906	0.0781675	-2.6015441
H	4.4239204	-0.6519740	-0.9940052
C	6.2197398	1.0343684	2.6788235
H	6.0269564	2.0598170	3.0474324
O	7.3225638	0.5069825	2.8622780
C	5.0700124	0.3761660	1.9689119
H	4.7680234	0.9775338	1.1010373
H	5.3474636	-0.6279038	1.6411292
H	4.1981152	0.3195716	2.6340478
