31
-0.000833323 (energy)
C	-0.8013453	2.0159842	1.2399914
O	0.2036183	2.7151773	1.1024956
O	-1.7306687	2.2456216	2.2366013
H	-1.4680928	3.0229714	2.7770433
N	-0.7951147	0.9169046	-0.9760217
C	-2.6043850	2.4510316	-1.4619924
H	-2.9631942	2.4923959	-0.4409443
H	-3.1470924	3.0424571	-2.1880029
C	-1.5303202	1.7222141	-1.8495287
C	-1.0539525	1.7302361	-3.2852324
H	-1.0274697	0.7190052	-3.7105482
H	-1.7221472	2.3382067	-3.8983714
H	-0.0432889	2.1486404	-3.3724866
C	0.9491069	-0.3451775	0.0280499
C	0.4316067	0.1735213	-1.3292328
C	-1.1631362	0.7767523	0.4252401
C	-0.3228275	-0.4417080	0.8968338
H	1.4674463	-1.3040631	-0.0650808
H	1.6440819	0.3799372	0.4633384
H	0.2071545	-0.6581099	-2.0141091
H	1.1683138	0.8204321	-1.8178296
H	-2.2371461	0.5979501	0.5386761
H	-0.1157858	-0.4230704	1.9707052
H	-0.8808687	-1.3585111	0.6755552
C	1.5899479	2.0493609	4.3385978
H	0.7524250	2.5978414	3.8671030
O	1.7919514	2.1520845	5.5537746
C	2.4177545	1.2090701	3.4070798
H	2.8500258	1.8364062	2.6161072
H	3.2174491	0.7059599	3.9547525
H	1.7850218	0.4624448	2.9090703
