31
-0.00837153 (energy)
C	-0.4719621	-0.0648338	-0.1143218
O	-0.2476806	1.1191257	0.1419318
O	0.5152638	-1.0307001	-0.0685659
H	1.3728334	-0.6314127	0.1968400
N	-2.9385053	-0.0234409	0.0678330
C	-2.5490322	-1.1291062	2.1865560
H	-1.6447315	-1.6288128	1.8617059
H	-2.8643493	-1.3168290	3.2047613
C	-3.2689431	-0.2957263	1.3977715
C	-4.5063468	0.4019736	1.9176585
H	-5.3881787	0.1763627	1.3047513
H	-4.7143986	0.0829891	2.9408961
H	-4.3821105	1.4922236	1.9236950
C	-2.7427283	1.0182120	-2.0581845
C	-3.6384447	0.9413037	-0.8048496
C	-1.7996090	-0.6567178	-0.5806212
C	-2.0269969	-0.3488527	-2.0861704
H	-3.3189986	1.2088827	-2.9683318
H	-2.0082565	1.8215583	-1.9422383
H	-4.6484535	0.5853893	-1.0583298
H	-3.7390748	1.9204045	-0.3240244
H	-1.7782670	-1.7335399	-0.3848309
H	-1.0967270	-0.3385368	-2.6614137
H	-2.6770479	-1.1238808	-2.5076764
C	3.5200842	-0.5686423	2.7446859
H	4.1260698	0.3448078	2.8962550
O	3.1669283	-0.8962298	1.6062749
C	3.1837644	-1.3353760	3.9929192
H	2.6292119	-0.6948009	4.6916195
H	2.5869081	-2.2172405	3.7507327
H	4.1042447	-1.6424358	4.5069654
