31
-0.0063214 (energy)
C	-0.4719621	0.0218234	0.1296018
O	-0.2476805	-1.0030906	-0.5161358
O	0.5152637	0.9450904	0.4169511
H	1.3728333	0.6606573	0.0309868
N	-2.9385053	0.0452272	-0.0557250
C	-2.5490323	1.8088588	-1.6685135
H	-1.6447316	2.1673242	-1.1923445
H	-2.8643494	2.3335072	-2.5611086
C	-3.2689431	0.7559576	-1.2123314
C	-4.5063467	0.2781459	-1.9394928
H	-5.3881786	0.2805241	-1.2863851
H	-4.7143985	0.9278611	-2.7919225
H	-4.3821103	-0.7442894	-2.3180528
C	-2.7427282	-1.6607472	1.5858116
C	-3.6384447	-1.1598112	0.4343661
C	-1.7996091	0.4185286	0.7702161
C	-2.0269970	-0.3856983	2.0796735
H	-3.3189985	-2.1512078	2.3758570
H	-2.0082563	-2.3759898	1.2020971
H	-4.6484534	-0.9120566	0.7942894
H	-3.7390746	-1.9154131	-0.3523339
H	-1.7782671	1.4973746	0.9545283
H	-1.0967271	-0.5921368	2.6166972
H	-2.6770480	0.1984263	2.7408348
C	2.7968722	-1.1962093	2.1138046
H	2.5441057	-2.1245140	1.5670485
O	2.9507793	-0.1360760	1.4970046
C	2.9287891	-1.3397045	3.6041351
H	3.7071556	-2.0759878	3.8451317
H	3.1782337	-0.3792493	4.0600737
H	1.9909251	-1.7186812	4.0314536
