31
-0.00622097 (energy)
C	-0.4148720	-0.2585730	0.0322852
O	-0.6181216	0.8163209	-0.5343019
O	0.8354264	-0.6273801	0.4909152
H	1.4910259	0.0801578	0.3041647
N	-2.7574249	-0.8441438	0.5692038
C	-2.1448587	-0.1762286	2.8146044
H	-1.1074875	-0.4713354	2.7157754
H	-2.4384027	0.2414818	3.7689401
C	-3.0552092	-0.2937904	1.8184037
C	-4.4838671	0.1677384	2.0032368
H	-5.2001256	-0.6430930	1.8196358
H	-4.6327015	0.5266087	3.0235858
H	-4.7347042	0.9874662	1.3182233
C	-2.7980419	-1.3890756	-1.7426612
C	-3.6882725	-0.9150832	-0.5756598
C	-1.4353972	-1.3702884	0.2625579
C	-1.6633520	-2.1717309	-1.0485070
H	-3.3497266	-2.0002876	-2.4629907
H	-2.3853368	-0.5239697	-2.2713614
H	-4.5024353	-1.6292210	-0.3802343
H	-4.1411753	0.0594935	-0.7878789
H	-1.0642708	-2.0093990	1.0701085
H	-0.7584945	-2.2533571	-1.6575911
H	-1.9881182	-3.1852338	-0.7872776
C	3.0311483	0.4587027	-2.4173711
H	3.1161594	1.5433783	-2.2152946
O	2.8739341	-0.3352868	-1.4830925
C	3.1205939	0.0621001	-3.8643624
H	4.0780803	0.3932796	-4.2881392
H	3.0271696	-1.0207660	-3.9704262
H	2.3297245	0.5591358	-4.4416792
