31
-0.00589954 (energy)
C	0.0004736	0.4657722	-0.1519117
O	-1.1526610	0.0690704	0.0231210
O	1.1008208	-0.3407435	0.0680313
H	0.8171018	-1.2342216	0.3621344
N	-0.4991322	2.4724224	-1.5092908
C	0.2785017	1.1094073	-3.3533752
H	0.9757232	0.5372177	-2.7538125
H	0.2316864	0.8618765	-4.4059642
C	-0.5198699	2.0813299	-2.8504402
C	-1.5003103	2.8243504	-3.7307200
H	-1.3298177	3.9080646	-3.7046680
H	-1.4020562	2.4907702	-4.7656704
H	-2.5371443	2.6484580	-3.4174252
C	-1.1118089	3.3440008	0.6139845
C	-1.4070920	3.4627654	-0.8952451
C	0.4237085	1.8761327	-0.5546072
C	0.3431052	2.8318543	0.6673847
H	-1.2411541	4.2957278	1.1377177
H	-1.7832196	2.6082477	1.0680028
H	-1.1939483	4.4774127	-1.2641699
H	-2.4563694	3.2392787	-1.1166682
H	1.4382844	1.8223923	-0.9621400
H	0.5930124	2.3360980	1.6098207
H	1.0539649	3.6523105	0.5176109
C	1.1314392	-1.3829497	3.3204726
H	1.6919581	-0.9604445	4.1759787
O	1.7395076	-1.8810049	2.3664255
C	-0.3656285	-1.2979012	3.4235895
H	-0.6781343	-0.2500743	3.5257946
H	-0.8351750	-1.7365389	2.5405834
H	-0.7123880	-1.8212955	4.3244944
