31
-0.00536635 (energy)
C	-0.4148720	-0.1013267	0.2400733
O	-0.6181216	-0.0545586	-0.9741056
O	0.8354264	0.1114550	0.7887847
H	1.4910259	0.3034932	0.0826636
N	-2.7574249	0.0708730	1.0156519
C	-2.1448587	2.3494046	1.5599207
H	-1.1074875	2.1162628	1.7660762
H	-2.4384027	3.3847388	1.6753407
C	-3.0552092	1.4278886	1.1636318
C	-4.4838671	1.8187231	0.8563527
H	-5.2001256	1.2543043	1.4667527
H	-4.6327015	2.8818065	1.0557364
H	-4.7347042	1.6353480	-0.1960591
C	-2.7980419	-2.2037267	0.3316441
C	-3.6882725	-0.9560777	0.5046554
C	-1.4353972	-0.4577624	1.3179835
C	-1.6633520	-1.9938992	1.3565206
H	-3.3497266	-3.1331564	0.5008045
H	-2.3853368	-2.2290415	-0.6819097
H	-4.5024353	-1.1439031	1.2208296
H	-4.1411753	-0.6525764	-0.4454623
H	-1.0642708	-0.0779584	2.2752448
H	-0.7584945	-2.5621946	1.1226689
H	-1.9881182	-2.2744194	2.3648546
C	3.0399635	-2.3267695	0.7081804
H	3.2806043	-1.9401039	1.7167262
O	2.8294183	-1.5412226	-0.2227326
C	2.9956051	-3.8239847	0.5838547
H	2.2475805	-4.2380895	1.2730741
H	2.7524732	-4.1155237	-0.4400928
H	3.9638150	-4.2555142	0.8704995
