31
-0.00992105 (energy)
C	-0.4253386	0.0350384	-0.2346806
O	-0.5805087	0.2036174	0.9790412
O	0.8041463	-0.2156285	-0.7956054
H	1.5151448	-0.2265714	-0.1169574
N	-2.7894197	-0.3948144	-0.8453901
C	-1.9709073	-2.6677862	-0.6914944
H	-0.9682632	-2.4252625	-1.0224243
H	-2.1647220	-3.7067901	-0.4561049
C	-2.9630442	-1.7489239	-0.5643531
C	-4.3445061	-2.1568587	-0.0991537
H	-5.0989122	-2.0048019	-0.8812489
H	-4.3519070	-3.2146607	0.1714288
H	-4.6625243	-1.5772801	0.7759230
C	-3.3274481	1.6865113	-1.8156424
C	-3.8476618	0.6375111	-0.8195423
C	-1.5068257	0.1346163	-1.3031256
C	-1.7966558	1.6348202	-1.6284247
H	-3.5968591	1.3965439	-2.8375444
H	-3.7341702	2.6834237	-1.6246858
H	-4.8107167	0.2222083	-1.1230420
H	-3.9643776	1.0694482	0.1856147
H	-1.1526428	-0.4043032	-2.1907630
H	-1.5017385	2.2637416	-0.7807682
H	-1.2413422	1.9677621	-2.5078232
C	3.6935928	0.3116998	2.0399143
H	3.5394949	-0.7581878	2.2769316
O	3.2635876	0.7797550	0.9797105
C	4.4386633	1.1027055	3.0783063
H	5.4318380	0.6649380	3.2456697
H	4.5443744	2.1429948	2.7633457
H	3.9076081	1.0598860	4.0384938
