31
-0.00625084 (energy)
C	2.4842344	-1.3208652	-1.4592522
O	2.2351654	-2.5247505	-1.3399114
O	2.4652344	-0.6782826	-2.6740897
H	2.2466030	-1.2966465	-3.4062291
N	2.2237153	-0.6603143	0.9161260
C	0.0502549	-0.0270130	0.0587771
H	0.4139337	0.2287206	-0.9291326
H	-1.0123105	0.0929180	0.2292842
C	0.8494292	-0.4778032	1.0602346
C	0.2757229	-0.8142547	2.4199845
H	0.6607368	-0.1465396	3.2009093
H	-0.8116531	-0.7166181	2.4027965
H	0.5227817	-1.8401018	2.7189927
C	4.4953042	-0.4534248	1.5160104
C	3.1619275	-1.0551208	1.9885652
C	2.9070062	-0.3738614	-0.3432090
C	4.4222374	-0.5748291	-0.0205343
H	4.5555440	0.5996932	1.8130972
H	5.3613314	-0.9759361	1.9315828
H	2.8476081	-0.6543538	2.9543044
H	3.2315020	-2.1493433	2.0800506
H	2.7033531	0.6511543	-0.6773466
H	4.7401504	-1.5761612	-0.3324722
H	5.0426617	0.1565866	-0.5427124
C	0.6195743	-1.7051382	-6.1279148
H	1.0867122	-0.8505893	-6.6533776
O	0.5464703	-1.7089313	-4.8939563
C	0.1076674	-2.8064732	-7.0134039
H	0.9264146	-3.2129183	-7.6220929
H	-0.3350643	-3.6045605	-6.4137190
H	-0.6411524	-2.4114498	-7.7127169
