31
-0.00590234 (energy)
C	-0.3932735	0.2404148	-0.1573287
O	0.5667983	1.0073206	-0.0318898
O	-0.3092575	-1.1023452	0.1238127
H	0.5952826	-1.3544691	0.4144025
N	-2.1996295	1.9355634	-0.2581657
C	-2.3383836	1.3059273	2.0751481
H	-2.0345365	0.2792952	1.9098268
H	-2.5514826	1.5886822	3.0984466
C	-2.4588193	2.2232813	1.0807812
C	-2.8918015	3.6422311	1.3813909
H	-3.8604328	3.8781051	0.9230902
H	-2.9886216	3.7842753	2.4596600
H	-2.1670050	4.3733706	1.0033548
C	-2.6417478	1.8987607	-2.5746194
C	-2.4019426	2.8570053	-1.3966975
C	-1.7740202	0.6054680	-0.6877807
C	-1.7393051	0.6906717	-2.2472575
H	-3.6939625	1.5934802	-2.5990095
H	-2.3944250	2.3505595	-3.5392079
H	-3.2534693	3.5177330	-1.2223288
H	-1.5143670	3.4836021	-1.5702455
H	-2.4789130	-0.1628602	-0.3463460
H	-0.7157402	0.8850001	-2.5872446
H	-2.0786841	-0.2403279	-2.7061985
C	2.4586501	-2.3162646	-1.7100326
H	2.8312677	-1.6809276	-2.5359175
O	2.6000422	-1.9535187	-0.5368166
C	1.7969374	-3.5989160	-2.1295797
H	2.4964526	-4.2108848	-2.7145749
H	1.4614191	-4.1599303	-1.2547841
H	0.9400350	-3.3857775	-2.7823458
