31
-0.00727474 (energy)
C	-0.1917789	-0.4462310	-0.0362544
O	-1.0808232	0.4040362	0.0744856
O	1.1439807	-0.1226738	-0.0489299
H	1.2811241	0.8477723	0.0260878
N	-1.5393861	-2.4527257	0.5156084
C	-0.5056211	-2.0319339	2.6637033
H	0.4090200	-1.6284894	2.2462209
H	-0.5678512	-2.0723185	3.7439800
C	-1.5444469	-2.4751451	1.9092409
C	-2.7940162	-3.0309189	2.5580478
H	-2.9329506	-4.0949375	2.3289534
H	-2.7305696	-2.9280435	3.6432234
H	-3.6936167	-2.5049379	2.2161867
C	-1.8230572	-3.3413498	-1.6506461
C	-2.5926123	-3.0048453	-0.3630946
C	-0.3967728	-1.9422795	-0.2385439
C	-0.7521219	-2.2333873	-1.7316667
H	-1.3484376	-4.3245240	-1.5555052
H	-2.4691341	-3.3575482	-2.5327140
H	-3.0557316	-3.8870497	0.0833348
H	-3.3841193	-2.2654978	-0.5565237
H	0.5291797	-2.4511614	0.0571434
H	-1.1764721	-1.3357916	-2.1956589
H	0.1312536	-2.5259263	-2.3031856
C	2.6006515	2.8839626	1.7914010
H	2.9732692	2.2486255	2.6172858
O	2.7420436	2.5212167	0.6181850
C	1.9389386	4.1666138	2.2109481
H	2.6384538	4.7785827	2.7959434
H	1.6034202	4.7276281	1.3361526
H	1.0820363	3.9534752	2.8637143
