31
-0.00617579 (energy)
C	0.2792348	0.3965054	0.0450224
O	-0.8737999	0.7073215	-0.2704480
O	0.6692568	-0.9082949	0.2307175
H	-0.0785531	-1.5315290	0.0944769
N	1.3996986	2.5321492	-0.5296128
C	1.8807396	1.2500705	-2.5258396
H	1.9311925	0.2978937	-2.0116008
H	2.0465236	1.2315767	-3.5957344
C	1.6258687	2.4288505	-1.9010778
C	1.5726561	3.7253587	-2.6804962
H	2.3762048	4.4114916	-2.3847702
H	1.6798331	3.5254704	-3.7485657
H	0.6228528	4.2509099	-2.5240486
C	1.6899730	3.4170186	1.6373038
C	1.2118283	3.7899301	0.2246631
C	1.4222495	1.3592150	0.3413540
C	1.2683101	1.9398934	1.7834177
H	2.7801087	3.5105058	1.6990388
H	1.2481009	4.0518020	2.4102985
H	1.7998086	4.6011411	-0.2092482
H	0.1564199	4.1006999	0.2329281
H	2.3637017	0.8063298	0.2328849
H	0.2208270	1.8791512	2.0998500
H	1.8735480	1.3860381	2.5041788
C	-1.9175718	-3.5471598	1.0364946
H	-1.7165083	-3.4194163	2.1171601
O	-0.9784150	-3.6415010	0.2383114
C	-3.3694425	-3.5928017	0.6504034
H	-3.8725639	-2.6680963	0.9631904
H	-3.4741157	-3.7205625	-0.4290861
H	-3.8726303	-4.4187836	1.1703738
