31
-0.00861345 (energy)
C	-0.4253386	-0.0350384	0.2346806
O	-0.5805087	-0.2036174	-0.9790412
O	0.8041463	0.2156285	0.7956054
H	1.5151448	0.2265714	0.1169574
N	-2.7894197	0.3948144	0.8453901
C	-1.9709073	2.6677862	0.6914945
H	-0.9682632	2.4252624	1.0224244
H	-2.1647220	3.7067900	0.4561051
C	-2.9630442	1.7489238	0.5643532
C	-4.3445061	2.1568587	0.0991538
H	-5.0989122	2.0048019	0.8812490
H	-4.3519070	3.2146608	-0.1714286
H	-4.6625243	1.5772801	-0.7759229
C	-3.3274481	-1.6865114	1.8156424
C	-3.8476618	-0.6375111	0.8195423
C	-1.5068257	-0.1346164	1.3031256
C	-1.7966558	-1.6348203	1.6284246
H	-3.5968591	-1.3965441	2.8375444
H	-3.7341702	-2.6834238	1.6246857
H	-4.8107167	-0.2222084	1.1230420
H	-3.9643776	-1.0694482	-0.1856148
H	-1.1526428	0.4043030	2.1907630
H	-1.5017385	-2.2637417	0.7807681
H	-1.2413422	-1.9677622	2.5078231
C	2.7826358	2.0246139	-1.6919214
H	2.3186966	1.3441214	-2.4310244
O	3.2197282	1.5766306	-0.6259602
C	2.8285703	3.4738616	-2.0877104
H	1.8125285	3.8468660	-2.2736507
H	3.3005013	4.0695473	-1.3034805
H	3.3860104	3.5914076	-3.0264632
