31
-0.00237568 (energy)
C	-1.2001266	-2.1104612	0.5022638
O	-0.6863846	-2.3533448	1.5989379
O	-2.3575748	-2.7173977	0.0767697
H	-2.6948565	-3.3579488	0.7417036
N	0.0000000	0.0000000	0.0000000
C	-2.0748418	0.8894321	0.8740650
H	-2.6846684	0.0723103	0.5079354
H	-2.5898722	1.6721065	1.4168962
C	-0.7321587	0.9683066	0.6848836
C	0.0601609	2.1413129	1.2211152
H	0.4985598	2.7400820	0.4129045
H	-0.5884197	2.7951642	1.8076614
H	0.8846859	1.8104403	1.8641456
C	1.5540282	-0.8009404	-1.5831208
C	1.4412658	0.0713773	-0.3223331
C	-0.6394342	-1.1839857	-0.5693575
C	0.5026493	-1.9066590	-1.3528249
H	1.2982444	-0.2099573	-2.4698342
H	2.5592296	-1.2083390	-1.7221108
H	1.7538141	1.1015986	-0.5040493
H	2.0571750	-0.3324333	0.4950565
H	-1.4644229	-0.9036578	-1.2361331
H	0.9291867	-2.7063175	-0.7366659
H	0.1325916	-2.3519665	-2.2787427
C	5.3076171	-2.0214069	-3.3992690
H	5.9911164	-2.3821364	-2.6072552
O	4.3861776	-1.2471553	-3.1173188
C	5.5920081	-2.5368581	-4.7822042
H	5.5451501	-3.6340039	-4.7932664
H	4.8724977	-2.1314905	-5.4967380
H	6.6102051	-2.2601045	-5.0863354
