31
-0.00500519 (energy)
C	-0.4710137	0.1236342	-0.0087341
O	-0.2070233	-0.5208297	1.0113605
O	0.4747239	0.4233496	-0.9599724
H	1.3596772	0.0749880	-0.7115702
N	-2.9390848	-0.1045101	0.0477858
C	-2.3863608	-1.8619340	-1.5225660
H	-1.5221725	-1.3508486	-1.9295031
H	-2.6143748	-2.8346019	-1.9402120
C	-3.1703157	-1.3468809	-0.5402505
C	-4.3666724	-2.1138630	-0.0189757
H	-5.3091554	-1.5969946	-0.2391921
H	-4.4104027	-3.1011970	-0.4831675
H	-4.3164697	-2.2485198	1.0682931
C	-3.5130302	2.0464838	0.8266265
C	-3.8044406	0.5536753	1.0498795
C	-1.8190223	0.7401820	-0.3606521
C	-2.0204321	2.0688776	0.4358621
H	-4.1285464	2.4278543	0.0040431
H	-3.7172351	2.6505750	1.7149371
H	-4.8555403	0.3091524	0.8841654
H	-3.5405393	0.2473321	2.0731306
H	-1.8345220	0.9183332	-1.4431500
H	-1.3972991	2.0611614	1.3373529
H	-1.7422944	2.9394556	-0.1618825
C	3.1758612	2.4515591	0.9340922
H	4.2352254	2.5521333	0.6304224
O	2.5708899	1.3928307	0.7313209
C	2.5721922	3.6647016	1.5844358
H	2.6308667	4.5257512	0.9053204
H	1.5297013	3.4771345	1.8501578
H	3.1403225	3.9323079	2.4852289
