31
-0.00321332 (energy)
C	-2.3113812	-0.7045470	0.5547516
O	-2.1939924	-0.7566355	1.7832157
O	-3.5347491	-0.6699573	-0.0707706
H	-4.2728242	-0.7054972	0.5774453
N	0.0000000	0.0000000	0.0000000
C	-1.1239530	2.1430246	-0.0649843
H	-2.0674965	1.7395914	-0.4122518
H	-1.0836290	3.2137882	0.0910303
C	-0.0243524	1.3826126	0.1747260
C	1.2652850	2.0120315	0.6563123
H	2.0703638	1.9063126	-0.0816541
H	1.1168762	3.0782784	0.8388148
H	1.6156837	1.5506975	1.5875469
C	0.8601479	-2.0550633	-0.7743651
C	1.1852356	-0.8710645	0.1506776
C	-1.1757732	-0.7351474	-0.4604148
C	-0.6709050	-2.2013313	-0.6497439
H	1.1372855	-1.8097256	-1.8058452
H	1.3877983	-2.9685965	-0.4866782
H	2.0970974	-0.3510670	-0.1496117
H	1.3101922	-1.2044851	1.1917105
H	-1.5558727	-0.3199233	-1.4021648
H	-0.9191350	-2.7982296	0.2352048
H	-1.1329252	-2.6741889	-1.5189436
C	4.9900244	-0.7521769	-1.2379224
H	4.4295054	-1.2818144	-2.0315756
O	4.3819561	-0.1749754	-0.3295703
C	6.4870921	-0.7989548	-1.3631350
H	6.7995980	-0.3635536	-2.3216822
H	6.9566387	-0.2535680	-0.5417605
H	6.8338514	-1.8408585	-1.3603146
