31
-0.00320035 (energy)
C	2.3561709	3.0160865	-0.8017562
O	1.4729890	3.4757832	-1.5327048
O	3.1335192	3.8092341	0.0080278
H	2.9013851	4.7596268	-0.0872051
N	1.6470605	0.6405626	-0.8275941
C	0.6564277	1.3563836	1.2619739
H	1.4315509	2.0791852	1.4864050
H	-0.1460947	1.2677195	1.9834985
C	0.6518682	0.5814744	0.1464903
C	-0.4620163	-0.4123240	-0.1042773
H	-0.0949964	-1.4463090	-0.0945827
H	-1.2267342	-0.3216827	0.6698064
H	-0.9388026	-0.2460535	-1.0778456
C	3.2604271	-0.2331746	-2.3096239
C	1.7521377	-0.2376152	-2.0125004
C	2.7802067	1.5555831	-0.7110459
C	3.7014641	1.1931252	-1.9194919
H	3.7667292	-0.9744441	-1.6810343
H	3.4820418	-0.4632323	-3.3554165
H	1.3774317	-1.2397221	-1.7946924
H	1.1798318	0.1628836	-2.8625590
H	3.3022767	1.4161172	0.2438215
H	3.5150764	1.8830198	-2.7503619
H	4.7579049	1.2616611	-1.6515354
C	2.1864063	-4.4658180	-1.0616645
H	2.1013951	-4.8331523	-0.0212696
O	2.3436206	-3.2597143	-1.2821404
C	2.0969607	-5.5206481	-2.1286279
H	1.1394742	-6.0532392	-2.0537064
H	2.1903850	-5.0710691	-3.1194495
H	2.8878299	-6.2691369	-1.9868407
