31
-0.00997639 (energy)
C	-0.4317821	0.1462322	0.1800305
O	-0.5979043	-0.5547444	-0.8178116
O	0.8261608	0.4445128	0.6744687
H	1.5185609	0.0082939	0.1313630
N	-2.8102374	0.8718659	0.4250621
C	-4.2271046	1.4961403	-1.4308585
H	-4.9789139	0.7485692	-1.2118679
H	-4.4190155	2.1439706	-2.2765608
C	-3.0821458	1.6264969	-0.7221685
C	-2.0361245	2.6498559	-1.1096925
H	-1.0979416	2.1775222	-1.4251378
H	-2.3973208	3.2495054	-1.9477879
H	-1.8059685	3.3308368	-0.2802990
C	-3.2833082	-0.1825096	2.4740163
C	-3.8140340	-0.0036307	1.0424862
C	-1.5023136	0.7638691	1.0669785
C	-1.7506183	-0.1775434	2.2956673
H	-3.5992501	0.6634777	3.0951201
H	-3.6408785	-1.1023923	2.9464493
H	-4.7939427	0.4846014	1.0147164
H	-3.9012276	-0.9664454	0.5140911
H	-1.1271370	1.7388922	1.4000785
H	-1.3979594	-1.1895429	2.0656322
H	-1.2084964	0.1709446	3.1776001
C	2.6279885	1.1631342	-2.1643331
H	1.5231493	1.1048920	-2.1871601
O	3.2551539	0.6705919	-1.2198344
C	3.2623575	1.8634754	-3.3331686
H	2.8882342	2.8935148	-3.4045650
H	4.3493210	1.8741633	-3.2284175
H	2.9866949	1.3606048	-4.2696218
