31
-0.00949107 (energy)
C	-0.4317821	0.0758393	0.2191877
O	-0.5979043	-0.2415812	-0.9582253
O	0.8261608	0.1870235	0.7858255
H	1.5185609	-0.0371351	0.1262775
N	-2.8102374	0.6739061	0.6976234
C	-4.2271046	1.8952944	-0.8328571
H	-4.9789139	1.1179082	-0.8827576
H	-4.4190155	2.7933030	-1.4059863
C	-3.0821458	1.7754033	-0.1223217
C	-2.0361245	2.8695872	-0.1364658
H	-1.0979416	2.5336274	-0.5944351
H	-2.3973208	3.7197190	-0.7189256
H	-1.8059685	3.2258307	0.8758184
C	-3.2833082	-1.0176664	2.2623929
C	-3.8140340	-0.3599630	0.9783748
C	-1.5023136	0.3528741	1.2638904
C	-1.7506183	-0.9520006	2.0964982
H	-3.5992501	-0.4351283	3.1353843
H	-3.6408785	-2.0436549	2.3917163
H	-4.7939427	0.1083229	1.1192650
H	-3.9012276	-1.0839911	0.1525438
H	-1.1271370	1.1551691	1.9103796
H	-1.3979594	-1.8242925	1.5342117
H	-1.2084964	-0.9261678	3.0444338
C	2.5017052	1.3555041	-2.2458627
H	2.0377660	0.4632622	-2.7076503
O	2.9387977	1.2991177	-1.0909675
C	2.5476397	2.5819838	-3.1134547
H	1.5315980	2.8688979	-3.4157564
H	3.0195707	3.4099676	-2.5802562
H	3.1050798	2.3713684	-4.0357968
