31
-0.00693696 (energy)
C	0.4317821	0.0827949	0.2166560
O	0.5979043	-0.4308735	-0.8893285
O	-0.8261608	0.3618507	0.7221937
H	-1.5185609	0.1096168	0.0728643
N	2.8102374	-0.0678182	0.9675889
C	4.2271046	-1.9872299	0.5802663
H	4.9789139	-1.4237930	0.0423460
H	4.4190155	-3.0435447	0.7184528
C	3.0821458	-1.4386645	1.0475034
C	2.0361246	-2.2859496	1.7399965
H	1.0979416	-2.3229665	1.1732209
H	2.3973209	-3.3115862	1.8402607
H	1.8059686	-1.9081640	2.7444400
C	3.2833082	2.2338160	1.0789497
C	3.8140340	0.9046350	0.5180985
C	1.5023136	0.5420961	1.1950192
C	1.7506183	2.0768780	0.9940762
H	3.5992502	2.3487141	2.1221481
H	3.6408785	3.1028961	0.5185243
H	4.7939427	0.6364696	0.9270350
H	3.9012276	0.9284385	-0.5799211
H	1.1271372	0.3430578	2.2059640
H	1.3979594	2.3836614	0.0026414
H	1.2084965	2.6664103	1.7368420
C	-4.6058903	-0.4047909	0.9921824
H	-4.4381072	-1.4912211	0.8652921
O	-3.7077429	0.3976482	0.7139112
C	-5.9626454	-0.0166397	1.5095143
H	-6.1425386	-0.4852481	2.4862904
H	-6.0399268	1.0686353	1.6032293
H	-6.7445794	-0.3852805	0.8323907
