31
-0.00547301 (energy)
C	2.7172251	-0.7108017	1.3666822
O	2.5893092	0.2558472	2.1176023
O	3.0780465	-1.9647308	1.8285594
H	3.2230565	-1.9419859	2.7997047
N	1.7959539	0.3869778	-0.6802115
C	-0.1385872	1.8358459	-0.6779719
H	0.3932452	2.6791882	-1.0998305
H	-1.1930520	1.9777089	-0.4787102
C	0.4564248	0.6585503	-0.3778037
C	-0.3222749	-0.4677598	0.2676818
H	0.0455359	-0.6951215	1.2755577
H	-1.3732735	-0.1860604	0.3598426
H	-0.2695620	-1.3905279	-0.3241973
C	3.7550881	0.3885682	-1.9823280
C	2.6152669	1.2956997	-1.4915469
C	2.5650709	-0.7347433	-0.1467462
C	3.9804078	-0.5806484	-0.8029970
H	3.4334529	-0.1616288	-2.8740218
H	4.6611111	0.9468527	-2.2366391
H	2.0134425	1.6976111	-2.3135184
H	2.9929792	2.1463778	-0.9020586
H	2.1208984	-1.7008567	-0.4145497
H	4.6775986	-0.1371147	-0.0828372
H	4.3850739	-1.5495722	-1.1039581
C	5.2206630	0.1581537	4.8114204
H	5.3655507	1.2256374	4.5583016
O	4.6026054	-0.5834565	4.0393898
C	5.8173060	-0.2826512	6.1186259
H	5.3922184	0.3033928	6.9443982
H	5.6275188	-1.3448852	6.2866038
H	6.8994173	-0.0960005	6.1218002
