31
-0.005099 (energy)
C	2.3451491	0.8584848	-0.0831491
O	2.2601511	1.6023446	0.8936322
O	3.5496310	0.5989996	-0.7138246
H	4.2760915	1.0984803	-0.2808782
N	0.0000000	0.0000000	0.0000000
C	-1.1456443	-0.5959414	2.0430432
H	-1.9599050	0.0993974	1.8832930
H	-1.1971762	-1.2066395	2.9352980
C	-0.0884915	-0.7051925	1.2059905
C	1.0534063	-1.6514994	1.5095880
H	1.9940584	-1.1155840	1.6849744
H	0.8304197	-2.2232207	2.4128365
H	1.2209496	-2.3631414	0.6909945
C	-0.7753168	0.9178079	-2.0224315
C	-1.1191808	0.7887292	-0.5297687
C	1.2130279	0.1403582	-0.8020270
C	0.7654466	1.0008394	-2.0336243
H	-1.1145499	0.0247854	-2.5597540
H	-1.2391502	1.7916268	-2.4899062
H	-2.0590647	0.2531588	-0.3590486
H	-1.1973260	1.7726702	-0.0403101
H	1.6007456	-0.8305830	-1.1326799
H	1.0845989	2.0404064	-1.8962574
H	1.2168198	0.6339413	-2.9581747
C	3.3361747	0.3587954	3.8126722
H	2.5295770	1.1032213	3.6719133
O	3.7872390	-0.2574888	2.8406913
C	3.8079269	0.1771370	5.2281327
H	2.9708857	-0.1318956	5.8683732
H	4.6009732	-0.5722553	5.2735806
H	4.1776606	1.1305798	5.6282041
