31
-0.0048225 (energy)
C	0.5984399	-2.5128233	0.7730484
O	1.7703232	-2.7803576	0.5089108
O	-0.3710445	-3.4907788	0.9129191
H	0.0156223	-4.3796996	0.7548773
N	0.9519445	-0.0828900	1.2357495
C	2.8375265	0.7944245	2.4672416
H	3.1689459	1.4347150	1.6596365
H	3.4125154	0.8323113	3.3835814
C	1.7795201	-0.0423159	2.3640282
C	1.3963838	-0.9610832	3.5044984
H	1.5126912	-2.0180301	3.2359323
H	2.0401275	-0.7706323	4.3657584
H	0.3560157	-0.8078597	3.8187548
C	-0.2979722	0.7944667	-0.5535717
C	1.0685051	0.8914331	0.1437685
C	-0.0205735	-1.1341136	0.9467477
C	-0.6738288	-0.6950999	-0.4090227
H	-1.0263573	1.4255461	-0.0315778
H	-0.2628242	1.1115864	-1.6002011
H	1.2597530	1.8867595	0.5586326
H	1.8964321	0.6458000	-0.5403496
H	-0.7822665	-1.2151839	1.7313714
H	-0.2402349	-1.2716272	-1.2342742
H	-1.7509758	-0.8764690	-0.4067437
C	-3.5015770	-2.7797097	2.6829833
H	-3.3873115	-3.4984323	1.8493383
O	-2.7527688	-1.7994691	2.7631519
C	-4.5995718	-3.0931265	3.6603550
H	-4.4345390	-4.0816453	4.1094003
H	-4.6401401	-2.3353537	4.4456647
H	-5.5659394	-3.1384289	3.1408411
