31
-0.00321733 (energy)
C	1.3173252	-0.1078226	-2.3501157
O	2.4081469	0.4552158	-2.2620852
O	0.6579542	-0.2603640	-3.5575187
H	1.1753207	0.1521002	-4.2833794
N	1.2365279	-0.9545388	-0.0006099
C	3.1381752	-1.8904182	1.1610872
H	3.0972474	-1.1733432	1.9711273
H	3.9102422	-2.6467393	1.2212303
C	2.3008865	-1.8582886	0.0989759
C	2.4416500	-2.8493611	-1.0366121
H	2.7129440	-2.3574072	-1.9785107
H	3.2303536	-3.5682533	-0.8051240
H	1.5126741	-3.4086572	-1.2062943
C	-0.5997001	0.3054611	0.7572712
C	0.8457558	-0.0794162	1.1114926
C	0.4780483	-0.6835772	-1.2194918
C	-0.5875419	0.3805468	-0.7838925
H	-1.2861349	-0.4785451	1.0970141
H	-0.9106090	1.2498676	1.2140702
H	0.9153467	-0.6312505	2.0548900
H	1.4985135	0.8047844	1.1883895
H	-0.0143125	-1.5843385	-1.6049693
H	-0.2695675	1.3785571	-1.1068401
H	-1.5592585	0.1775769	-1.2396507
C	4.6406207	4.1384393	-2.0402950
H	3.8298003	4.5405683	-2.6770410
O	5.7505318	4.6825497	-2.0329856
C	4.2818986	2.9275382	-1.2253625
H	3.9570426	2.1114735	-1.8845696
H	5.1369919	2.6003076	-0.6301212
H	3.4363865	3.1552862	-0.5627514
