31
-0.00308371 (energy)
C	0.4317821	-0.0037010	-0.2319076
O	0.5979043	0.1007203	0.9830629
O	-0.8261608	-0.0930236	-0.8024003
H	-1.5185609	-0.0780851	-0.1059612
N	2.8102374	0.3946632	-0.8860410
C	4.2271046	2.0658480	0.1344008
H	4.9789139	1.3524110	0.4471738
H	4.4190155	3.1057218	0.3658289
C	3.0821458	1.7101698	-0.4922789
C	2.0361246	2.7432039	-0.8532209
H	1.0979416	2.5841397	-0.3079656
H	2.3973209	3.7412794	-0.5966500
H	1.8059686	2.7317415	-1.9262994
C	3.2833082	-1.7300778	-1.7778912
C	3.8140340	-0.6728786	-0.7962567
C	1.5023136	-0.1006830	-1.3083585
C	1.7506183	-1.6116328	-1.6444602
H	3.5992502	-1.4812518	-2.7974745
H	3.6408785	-2.7384228	-1.5485066
H	4.7939427	-0.2810211	-1.0888134
H	3.9012276	-1.0707915	0.2274028
H	1.1271372	0.4321153	-2.1902607
H	1.3979594	-2.2390056	-0.8177424
H	1.2084965	-1.9115711	-2.5440637
C	1.6211028	-2.8272214	4.1424180
H	1.4628566	-2.1176227	4.9766905
O	1.5605137	-4.0451581	4.3448316
C	1.9028257	-2.2004093	2.8056993
H	2.8004241	-1.5705171	2.8656974
H	2.0450568	-2.9705958	2.0446738
H	1.0730441	-1.5426998	2.5146769
