31
-0.0065362 (energy)
C	2.4932093	-0.0152215	0.2159900
O	3.4250705	0.1209338	1.0121930
O	2.5765011	0.4037286	-1.0952297
H	3.4375906	0.8482757	-1.2538955
N	0.0000000	0.0000000	0.0000000
C	0.3396268	1.9390655	1.4106436
H	1.2158463	1.5417736	1.9066255
H	0.0096877	2.9195151	1.7292919
C	-1.5560378	1.9011101	-0.2137965
H	-2.4649997	1.3145673	-0.0268420
H	-1.7194996	2.9061372	0.1802181
H	-1.4333111	1.9789188	-1.3013774
C	-0.3008214	-2.1943902	-0.7768211
C	-0.6405501	-0.7311933	-1.1050661
C	1.1685877	-0.7067191	0.5190303
C	1.1193859	-2.1083590	-0.1736967
H	-1.0090739	-2.5804482	-0.0348765
H	-0.3389798	-2.8440046	-1.6564747
H	-1.7178449	-0.5512462	-1.1230792
H	-0.2265694	-0.4393056	-2.0833854
H	1.1174458	-0.7882700	1.6115461
H	1.8679304	-2.1565444	-0.9712718
H	1.3323871	-2.9107852	0.5369799
C	-0.3424669	1.2803284	0.4432306
C	3.5601317	3.3764988	-3.3466502
H	3.3512064	4.0795114	-2.5179728
O	3.5697712	2.1581164	-3.1381711
C	3.8183477	4.0124021	-4.6838224
H	4.6763008	4.6947773	-4.6180385
H	4.0141041	3.2483158	-5.4390895
H	2.9541399	4.6182402	-4.9870031
