31
-0.00111931 (energy)
C	3.5899161	0.2321103	0.0445339
O	4.6852113	-0.2692476	0.3087519
O	3.3140564	1.5637694	0.2733118
H	4.0813870	1.9984797	0.7051716
N	1.1267687	-0.2066553	-0.0134837
C	1.7106664	-1.2086637	2.1126112
H	2.7041940	-1.5085768	1.8051141
H	1.4210126	-1.4681506	3.1227820
C	-0.5314115	-0.1523040	1.8109797
H	-1.3301947	-0.6454649	1.2418280
H	-0.6424368	-0.4373636	2.8590546
H	-0.6940590	0.9301401	1.7347628
C	0.7553746	0.1651276	-2.3010888
C	0.2657874	0.5862752	-0.9057234
C	2.4249498	-0.4940235	-0.6189480
C	2.2756883	-0.0314586	-2.1057703
H	0.2810579	-0.7799465	-2.5891914
H	0.5290990	0.9097785	-3.0702049
H	-0.7885728	0.3478108	-0.7484698
H	0.4007832	1.6684365	-0.7495499
H	2.6581725	-1.5630998	-0.5445170
H	2.7978767	0.9192875	-2.2546593
H	2.7051109	-0.7630271	-2.7947711
C	0.8407716	-0.5484975	1.3110265
C	-1.7423468	3.2727270	2.3569208
H	-1.6280814	2.5765518	3.2094854
O	-0.9935387	3.1814604	1.3776512
C	-2.8403414	4.2896746	2.4958573
H	-2.6753085	4.9035524	3.3913823
H	-2.8809097	4.9314678	1.6132291
H	-3.8067091	3.7859201	2.6306842
