31
-0.00560931 (energy)
C	-0.4615845	-0.0711036	-0.1462860
O	0.1587247	-1.1367742	-0.1261522
O	0.1217125	1.1283471	0.2041939
H	1.0452669	0.9803622	0.5032254
N	-2.7021950	0.9716998	0.2476705
C	-2.5509281	-0.5027362	2.1629756
H	-1.9665710	-1.2582187	1.6536894
H	-2.8081211	-0.7077910	3.1942283
C	-3.7731966	1.6656504	2.3577819
H	-4.7732756	1.8054723	1.9270988
H	-3.8971255	1.3331679	3.3903243
H	-3.2824722	2.6469133	2.3739398
C	-3.0703913	1.8405829	-1.9014612
C	-3.0431506	2.2398575	-0.4168928
C	-1.9032674	0.1011594	-0.6115825
C	-1.9398513	0.7930348	-2.0140289
H	-4.0381205	1.3870094	-2.1441867
H	-2.9144597	2.6922969	-2.5704259
H	-4.0089521	2.6166775	-0.0726492
H	-2.2844942	3.0166277	-0.2304646
H	-2.3297610	-0.9087974	-0.6423626
H	-0.9851462	1.2925822	-2.2083415
H	-2.1077908	0.0654957	-2.8120274
C	-2.9650559	0.6486259	1.5816514
C	3.4913569	0.0767732	-1.5932222
H	4.5507211	-0.2397477	-1.6395367
O	2.8863856	0.0609288	-0.5153675
C	2.8876879	0.5065766	-2.9008654
H	2.9463624	-0.3117413	-3.6309065
H	1.8451970	0.8008323	-2.7622900
H	3.4558182	1.3472152	-3.3208273
