31
-0.00426347 (energy)
C	0.1001328	1.9449462	1.2738056
O	0.7535909	2.9365090	1.6064285
O	-1.1410621	1.6670787	1.8067021
H	-1.3707185	2.3312246	2.4925887
N	0.2762162	-0.4549118	0.5863083
C	1.8614722	-0.3953272	2.4162400
H	2.1589894	0.6318653	2.2490318
H	2.3542459	-0.9124671	3.2295164
C	0.5591519	-2.4778245	1.9679574
H	0.8051123	-3.1436290	1.1304588
H	1.1032241	-2.8303091	2.8464713
H	-0.5143390	-2.5848413	2.1682396
C	-0.7282830	-0.2912238	-1.5287521
C	-0.8034475	-1.0680207	-0.2039719
C	0.5101320	0.9362983	0.2064935
C	-0.3460111	1.1394090	-1.0868166
H	0.0565491	-0.7184291	-2.1633216
H	-1.6696058	-0.3153333	-2.0860450
H	-0.6306777	-2.1377779	-0.3419565
H	-1.7866658	-0.9373343	0.2754964
H	1.5768896	1.1128763	0.0229039
H	-1.2490178	1.7115361	-0.8501391
H	0.2106375	1.6891780	-1.8498467
C	0.9325944	-1.0416768	1.6715974
C	3.8104211	5.6518570	1.0360033
H	4.0521728	5.6521245	2.1158824
O	3.7262878	6.7199729	0.4195115
C	3.6042321	4.2962762	0.4204019
H	2.7876878	3.7694830	0.9320573
H	3.3712409	4.3904654	-0.6423399
H	4.5059765	3.6826943	0.5476323
