31
-0.00397043 (energy)
C	-0.4011100	0.2802360	-0.0097011
O	0.5395377	0.8452815	-0.5725048
O	-0.2778094	-0.9717808	0.5551039
H	0.6221329	-1.3290861	0.3916754
N	-2.8812341	-0.0509548	-0.0573847
C	-2.3562163	-0.2558766	-2.4127191
H	-1.5223884	0.4336573	-2.3831658
H	-2.5900785	-0.6866861	-3.3778044
C	-4.2467076	-1.5668467	-1.4425692
H	-5.2079910	-1.0976115	-1.1956916
H	-4.3124984	-1.9468847	-2.4639846
H	-4.1170501	-2.4236583	-0.7695083
C	-3.3922468	0.7991356	2.0699389
C	-3.5893044	-0.4350570	1.1743706
C	-1.7862367	0.8790258	0.2082438
C	-1.9703617	1.2841965	1.7078506
H	-4.1344245	1.5637231	1.8135747
H	-3.4928662	0.5682406	3.1347433
H	-4.6442280	-0.6364213	0.9747256
H	-3.1491076	-1.3330005	1.6365516
H	-1.8450037	1.7465837	-0.4601471
H	-1.2299515	0.7675724	2.3272528
H	-1.8357265	2.3595531	1.8485637
C	-3.0986501	-0.5875922	-1.3292842
C	3.4216156	-0.0059206	-1.6181619
H	2.7381164	0.7795109	-1.2433167
O	4.3430551	-0.4177977	-0.9044962
C	3.1372246	-0.4999958	-3.0088774
H	3.1840827	0.3333559	-3.7225833
H	3.8567350	-1.2698189	-3.2956768
H	2.1190277	-0.9074930	-3.0639617
