31
-0.00384597 (energy)
C	0.1741293	0.0260322	0.4566365
O	1.0965073	-0.0525013	-0.3581604
O	-1.1503777	0.0319514	0.0727095
H	-1.2183660	0.0161808	-0.9067807
N	-0.5155221	1.0401929	2.6381120
C	0.5606507	2.9358046	1.5827708
H	1.2789730	2.3415139	1.0328334
H	0.6278289	4.0088739	1.4575213
C	-1.3634202	3.3027786	3.1310188
H	-1.2517128	3.2219888	4.2201426
H	-1.1960182	4.3455079	2.8540013
H	-2.4030709	3.0498847	2.8878741
C	-0.9267456	-0.9377568	3.8330611
C	-1.5725870	0.4004238	3.4377548
C	0.3369767	0.0582004	1.9722456
C	-0.0878511	-1.3142183	2.5910137
H	-0.2772960	-0.7914446	4.7036657
H	-1.6654549	-1.7054119	4.0825798
H	-1.8292037	1.0083999	4.3082617
H	-2.4895551	0.2380188	2.8491284
H	1.3958031	0.2787811	2.1541456
H	-0.7048887	-1.8699062	1.8774015
H	0.7833782	-1.9281994	2.8324787
C	-0.3846689	2.4107980	2.3987447
C	1.0520517	-1.1109058	-4.2357156
H	0.9377865	-0.1504040	-4.7732681
O	0.3032435	-2.0594497	-4.4956440
C	2.1500465	-1.1506714	-3.2100918
H	1.9850138	-0.3753501	-2.4500338
H	2.1906146	-2.1313367	-2.7313157
H	3.1164141	-0.9304169	-3.6827808
