31
-0.00360873 (energy)
C	0.4663851	0.1317166	-0.0682003
O	0.2412328	-0.0731630	1.1268617
O	-0.5065541	-0.0051564	-1.0358826
H	-1.3423263	-0.3253423	-0.6318554
N	2.1972315	-0.0751740	-1.8638459
C	2.4379605	-2.2174143	-0.7601735
H	2.1735561	-1.8470535	0.2219276
H	2.6874629	-3.2686074	-0.8266532
C	2.8445826	-2.0327249	-3.2166627
H	3.7628329	-1.5843051	-3.6178261
H	3.0117020	-3.1073156	-3.1198499
H	2.0519800	-1.8782429	-3.9595386
C	2.3782015	2.1921874	-2.4431689
C	2.1299481	0.7995062	-3.0455932
C	1.7907361	0.6198573	-0.6447748
C	1.6753663	2.1211403	-1.0687149
H	3.4547597	2.3524633	-2.3148004
H	1.9845266	2.9988876	-3.0688686
H	2.8901376	0.5259265	-3.7808043
H	1.1443372	0.7507950	-3.5353741
H	2.5335147	0.4747928	0.1490092
H	0.6215178	2.3992462	-1.1727688
H	2.1256245	2.7806797	-0.3226627
C	2.4738323	-1.4449900	-1.8724452
C	-2.2542365	1.7741603	4.2633042
H	-2.7597970	0.8220176	4.5131355
O	-2.8412626	2.8494169	4.4283364
C	-0.8550101	1.6423342	3.7305139
H	-0.8542368	1.0299086	2.8189323
H	-0.4348600	2.6263588	3.5120049
H	-0.2200706	1.1238249	4.4611393
