31
-0.00346154 (energy)
C	1.1202908	-2.0246470	0.2473373
O	1.0386161	-3.2421635	0.4257340
O	2.3318947	-1.3719524	0.1592495
H	3.0681228	-2.0046583	0.3073154
N	0.0425390	0.1722780	0.7716919
C	-0.0534176	-0.9029157	2.9396374
H	-0.1565020	-1.9046953	2.5428873
H	-0.0533580	-0.8103932	4.0181167
C	0.2156152	1.5749402	2.7925248
H	-0.6250443	2.2328124	2.5362206
H	0.2519818	1.4869174	3.8801719
H	1.1354047	2.0733416	2.4615691
C	-0.4295285	0.8664201	-1.4202506
C	0.2574723	1.3215818	-0.1221893
C	-0.0602153	-1.0838934	0.0328303
C	-0.1409072	-0.6509960	-1.4681609
H	-1.5079587	1.0489767	-1.3509282
H	-0.0503514	1.3886192	-2.3038671
H	-0.1934050	2.2281125	0.2879097
H	1.3290019	1.5155087	-0.2892332
H	-0.9494713	-1.6446514	0.3452899
H	0.8195747	-0.8335945	-1.9610088
H	-0.9073476	-1.2161823	-2.0043064
C	0.0662653	0.2044536	2.1686098
C	-2.9353458	3.8488989	1.2108332
H	-2.3748268	4.5385243	1.8702407
O	-2.3272773	3.0545768	0.4846671
C	-4.4324135	3.9640863	1.2786433
H	-4.7449193	4.9836777	1.0163068
H	-4.9019600	3.2498958	0.5989120
H	-4.7791728	3.7803841	2.3042284
