31
-0.00321688 (energy)
C	-2.4932093	-0.1794422	0.1211773
O	-3.4250704	-0.9370519	0.4013649
O	-2.5765011	0.7466322	-0.8972541
H	-3.4375907	0.6617672	-1.3615760
N	0.0000000	0.0000000	0.0000000
C	-0.3396267	-2.1911861	-0.9739580
H	-1.2158462	-2.4220729	-0.3819021
H	-0.0096876	-2.9573684	-1.6637281
C	1.5560378	-0.7654020	-1.7533079
H	2.4649997	-0.6340377	-1.1518697
H	1.7194996	-1.6091422	-2.4266795
H	1.4333110	0.1375664	-2.3644827
C	0.3008213	1.7699421	1.5119870
C	0.6405500	1.3226120	0.0806988
C	-1.1685876	-0.0961339	0.8715519
C	-1.1193859	1.2046053	1.7390441
H	1.0090739	1.3204282	2.2172954
H	0.3389797	2.8565516	1.6347427
H	1.7178448	1.2482383	-0.0841465
H	0.2265693	2.0239174	-0.6612431
H	-1.1174457	-1.0015048	1.4884350
H	-1.8679305	1.9194183	1.3819863
H	-1.3323871	0.9903545	2.7893038
C	0.3424669	-1.0240132	-0.8871816
C	3.3259636	-1.1115440	2.4867861
H	3.5445577	-2.0273148	1.9052679
O	2.7479198	-0.1598194	1.9500389
C	3.7764483	-1.1337075	3.9205401
H	4.8613769	-1.2956596	3.9729649
H	3.5211143	-0.1946317	4.4160377
H	3.3050103	-1.9713246	4.4515364
