31
-0.00310976 (energy)
C	-1.5626431	-1.5774464	0.6965860
O	-1.8003009	-2.7587338	0.9591152
O	-2.5346067	-0.6005477	0.7486375
H	-3.4043265	-1.0005042	0.9674852
N	-0.2042842	-0.0643551	-0.7623149
C	-0.9184991	-1.7217776	-2.3772715
H	-0.9379194	-2.5402217	-1.6691955
H	-1.1807788	-1.9636365	-3.3992262
C	-0.5880160	0.6475770	-3.0919254
H	0.4137286	1.0720941	-3.2385165
H	-0.9265073	0.2501075	-4.0508249
H	-1.2560525	1.4715814	-2.8114039
C	0.9662133	1.0867881	0.9152124
C	0.0806139	1.3106787	-0.3215949
C	-0.1903077	-1.0098896	0.3513325
C	0.3739524	-0.1882163	1.5568819
H	2.0015780	0.9118414	0.6012730
H	0.9562167	1.9391378	1.6012484
H	0.5961504	1.8747018	-1.1022161
H	-0.8398945	1.8542342	-0.0553269
H	0.4401738	-1.8757667	0.1155218
H	-0.4396216	0.0796659	2.2388667
H	1.1103882	-0.7654397	2.1215003
C	-0.5855020	-0.4500577	-2.0502917
C	3.8618094	-2.1396372	0.4820227
H	4.2390247	-2.0029308	-0.5492885
O	2.9449376	-1.4272172	0.9060699
C	4.5368777	-3.2205102	1.2789383
H	5.6133122	-3.0168395	1.3554493
H	4.1035248	-3.2852509	2.2792336
H	4.4327772	-4.1870619	0.7682973
