31
-0.00315137 (energy)
C	-0.2202326	-2.1664720	-1.2332367
O	0.4020583	-3.0128854	-1.8791322
O	-1.5259953	-1.8308478	-1.5232259
H	-1.8317772	-2.3191098	-2.3184428
N	0.0000000	0.0000000	0.0000000
C	1.3302372	0.4677377	-1.9689914
H	1.6665301	-0.5527959	-2.0994434
H	1.7013378	1.1914376	-2.6832888
C	0.0596547	2.3098022	-0.8616481
H	0.4016084	2.7636409	0.0776570
H	0.4760681	2.8924737	-1.6857479
H	-1.0327147	2.4075912	-0.8950353
C	-0.7127824	-0.7238126	2.1159701
C	-0.9770473	0.3468924	1.0445876
C	0.3082220	-1.4280649	-0.0084446
C	-0.3654371	-1.9827472	1.2897837
H	0.1408772	-0.4243716	2.7346338
H	-1.5724459	-0.8837900	2.7737172
H	-0.8077165	1.3583657	1.4207769
H	-2.0123907	0.2868884	0.6729014
H	1.3930207	-1.5895196	-0.0074937
H	-1.2808787	-2.5253078	1.0321761
H	0.2974554	-2.6724965	1.8181188
C	0.4959656	0.8655887	-0.9786481
C	4.5179070	-2.0671550	-0.4154502
H	4.6180615	-1.6650220	-1.4415306
O	3.6609895	-1.6092076	0.3487413
C	5.4755369	-3.1687235	-0.0568837
H	6.5109297	-2.8188808	-0.1646739
H	5.3061566	-3.5037750	0.9686053
H	5.3534363	-4.0145167	-0.7464767
