31
-0.00270085 (energy)
C	3.5899161	0.1546226	-0.1787465
O	4.6852113	0.1327631	0.3875512
O	3.3140564	1.0185796	-1.2176081
H	4.0813870	1.6099364	-1.3781483
N	1.1267687	-0.1150049	0.1722269
C	1.7106664	1.2252431	2.1030391
H	2.7041940	0.8089862	2.2090230
H	1.4210126	1.9703332	2.8328468
C	-0.5314115	1.4922024	1.0373890
H	-1.3301947	0.7527221	1.1799030
H	-0.6424368	2.2573321	1.8082953
H	-0.6940590	1.9674187	0.0618565
C	0.7553746	-1.9102375	-1.2935491
C	0.2657874	-0.4912418	-0.9605909
C	2.4249498	-0.7830364	0.1183629
C	2.2756883	-1.8393798	-1.0256412
H	0.2810579	-2.6322788	-0.6191423
H	0.5290990	-2.2039861	-2.3229938
H	-0.7885728	-0.4742885	-0.6754479
H	0.4007832	0.1850890	-1.8196833
H	2.6581725	-1.2531155	1.0814256
H	2.7978767	-1.4929484	-1.9234560
H	2.7051109	-2.8018564	-0.7365847
C	0.8407716	0.8611335	1.1305260
C	0.0776020	-5.4235162	1.0903287
H	0.0398465	-5.0424424	2.1285676
O	0.6165134	-4.7524206	0.2030760
C	-0.5573117	-6.7682720	0.8721665
H	-1.6154522	-6.7381195	1.1645299
H	-0.4742735	-7.0647784	-0.1755765
H	-0.0741248	-7.5216355	1.5083954
