31
-0.00207864 (energy)
C	1.1766545	-2.0726349	2.0845675
O	0.4829834	-1.8128126	3.0705468
O	2.5309963	-1.8154817	2.0473612
H	2.8130380	-1.3689368	2.8752031
N	1.1843473	-2.1564545	-0.4166105
C	0.0496474	-0.0499264	-0.0421338
H	-0.4156245	-0.3577448	0.8854272
H	-0.1755191	0.9522102	-0.3837476
C	1.4941198	-0.3419439	-2.0575782
H	1.1630758	-0.9272712	-2.9253327
H	1.2112177	0.6986564	-2.2283530
H	2.5896008	-0.3946262	-2.0244995
C	1.6646377	-4.4373791	-0.6922860
C	2.1364999	-3.0359989	-1.1136945
C	0.6835391	-2.7599105	0.8160587
C	1.1966680	-4.2367848	0.7667943
H	0.8253223	-4.7498999	-1.3239700
H	2.4537853	-5.1908422	-0.7746550
H	2.0861058	-2.8909898	-2.1952222
H	3.1738367	-2.8544452	-0.7901859
H	-0.4113061	-2.7082557	0.8548222
H	2.0423056	-4.3606970	1.4511259
H	0.4151445	-4.9394279	1.0665143
C	0.8708483	-0.8419109	-0.7725200
C	1.9752836	0.7282524	5.0364005
H	1.5081459	-0.2544798	4.8348999
O	2.0483875	1.1538554	6.1946449
C	2.4871904	1.4603138	3.8276343
H	1.6684433	1.6340633	3.1166412
H	2.9299219	2.4153750	4.1181918
H	3.2360104	0.8499342	3.3056010
