31
-0.00189052 (energy)
C	2.6694975	1.5284528	0.7505785
O	2.2493430	2.2923051	1.6228413
O	3.1217553	1.9815487	-0.4708636
H	3.0064261	2.9546732	-0.5341086
N	2.3686943	-0.7374198	-0.2683989
C	0.0610682	-0.0395896	-0.0378961
H	0.2304509	0.5513647	0.8529922
H	-0.9575791	-0.0799777	-0.4017703
C	0.7292667	-1.5138450	-1.9389148
H	0.9324557	-2.5832531	-1.7965185
H	-0.3253614	-1.4055561	-2.1998359
H	1.3269128	-1.1772052	-2.7953266
C	4.5127112	-1.5984143	0.1453318
C	3.4900762	-1.3714332	-0.9801916
C	2.8183323	0.0182707	0.8983054
C	4.3270678	-0.3635825	1.0557581
H	4.2645976	-2.5164587	0.6901056
H	5.5375030	-1.6882893	-0.2274543
H	3.1785613	-2.3070237	-1.4501898
H	3.9025536	-0.7142015	-1.7622376
H	2.2326844	-0.2541710	1.7846737
H	4.9584798	0.4587761	0.7038886
H	4.5806412	-0.5595908	2.1005546
C	1.0372890	-0.7131863	-0.6923689
C	5.5602645	-5.4471020	1.3904746
H	4.8675549	-5.9365336	0.6797053
O	5.4336411	-4.2454557	1.6512904
C	6.6175872	-6.3382304	1.9795730
H	7.2325323	-6.7736000	1.1806094
H	7.2530216	-5.7750698	2.6663407
H	6.1504465	-7.1769590	2.5126089
