31
-0.00177879 (energy)
C	-1.1202907	-1.7099549	1.1119468
O	-1.0386160	-2.7572978	1.7578916
O	-2.3318946	-1.1533402	0.7598819
H	-3.0681227	-1.7331960	1.0531524
N	-0.0425390	-0.3640615	-0.7018884
C	0.0534177	-2.5812362	-1.6715096
H	0.1565022	-3.0936178	-0.7236498
H	0.0533582	-3.2035931	-2.5571449
C	-0.2156151	-0.5885265	-3.1515501
H	0.6250443	0.0801820	-3.3780818
H	-0.2519817	-1.3550820	-3.9281561
H	-1.1354047	0.0060053	-3.2183896
C	0.4295284	1.5766359	0.5310509
C	-0.2574724	1.0909320	-0.7558941
C	0.0602153	-0.8514134	0.6715639
C	0.1409072	0.4450239	1.5431286
H	1.5079586	1.6719228	0.3606017
H	0.0503512	2.5446414	0.8722771
H	0.1934050	1.5217682	-1.6527549
H	-1.3290020	1.3468624	-0.7525848
H	0.9494713	-1.4818241	0.7926543
H	-0.8195748	0.6219418	2.0380440
H	0.9073476	0.3566939	2.3171347
C	-0.0662652	-1.2373351	-1.7926716
C	-1.0072872	-6.3736937	3.4296974
H	-0.9071326	-6.4006349	4.5314351
O	-1.8642047	-7.0653926	2.8682197
C	-0.0496575	-5.4611949	2.7159963
H	0.9857353	-5.7530729	2.9369391
H	-0.2190380	-5.4970874	1.6377576
H	-0.1717582	-4.4305545	3.0747234
