31
-0.00762953 (energy)
C	1.2312353	-1.4674010	1.6398064
O	1.1756368	-1.9456373	2.7714501
O	1.8003936	-2.1804567	0.6186867
H	1.8468570	-1.6972002	-0.2462049
N	0.0000000	0.0000000	0.0000000
C	2.0157118	0.0918400	-1.3476102
H	2.6951011	0.2135621	-0.5116253
H	2.4608665	0.1302247	-2.3325597
C	-0.2195438	0.0055646	-2.4543441
H	-0.8231377	0.9174297	-2.5441299
H	0.3987464	-0.0727771	-3.3502644
H	-0.9082992	-0.8468083	-2.4365657
C	-1.5937755	0.8435282	1.5199274
C	-1.4619834	0.0575494	0.2033387
C	0.6968359	-0.0531494	1.3006622
C	-0.3569998	0.4119657	2.3446300
H	-1.5615001	1.9183479	1.3080365
H	-2.5330353	0.6300455	2.0387710
H	-1.9553526	0.5549396	-0.6330643
H	-1.8896284	-0.9522136	0.3006281
H	1.5608379	0.6266326	1.2790850
H	-0.5844695	-0.4193610	3.0162748
H	0.0286313	1.2282500	2.9606312
C	0.6571895	0.0458241	-1.2208948
C	2.4714873	-0.1617511	4.8538765
H	2.3160540	-1.2359619	4.6382504
O	2.7309842	0.6235250	3.9351736
C	2.3434412	0.2323585	6.2986463
H	3.0675417	-0.3251287	6.9076892
H	2.5113497	1.3047250	6.4187032
H	1.3453631	-0.0293312	6.6743749
