31
-0.00638811 (energy)
C	0.5458982	2.2545691	0.4371902
O	0.0114923	3.2355013	-0.0772037
O	1.1381344	2.3596738	1.6673464
H	1.5870232	1.5327911	1.9811887
N	0.3787970	-0.2503930	0.6725901
C	2.6251472	-0.2592590	1.5898764
H	3.0293498	0.4573179	0.8839057
H	3.3300627	-0.6890830	2.2885229
C	0.9078235	-1.8331475	2.4856136
H	0.6751099	-2.7582002	1.9433896
H	1.7061387	-2.0563871	3.1955082
H	0.0140399	-1.5478621	3.0521846
C	-1.2447863	-0.5823007	-1.0054009
C	-0.9827961	-0.7953428	0.4961022
C	0.6066454	0.8719094	-0.2594237
C	-0.5074238	0.7380767	-1.3353926
H	-0.8164819	-1.4166370	-1.5725121
H	-2.3127148	-0.5298081	-1.2372537
H	-1.0251276	-1.8468613	0.7840211
H	-1.7136975	-0.2441145	1.1075734
H	1.6056792	0.7753963	-0.7085176
H	-1.1715485	1.6033381	-1.2704725
H	-0.0858516	0.7298158	-2.3437068
C	1.3471523	-0.7366317	1.5388706
C	2.6241661	2.9261001	-3.0207186
H	3.4307639	3.4058853	-2.4343833
O	2.1731018	1.8292218	-2.6722778
C	2.1524140	3.6967821	-4.2217920
H	2.9894551	3.8715879	-4.9108871
H	1.3593676	3.1519278	-4.7383071
H	1.7826804	4.6843227	-3.9154033
