31
-0.00568993 (energy)
C	0.2077402	0.4018535	0.1327311
O	-0.3937544	0.5871834	-0.9238084
O	0.1960314	-0.8333750	0.7236193
H	0.6644790	-0.8775636	1.5967386
N	2.2634064	1.0638389	1.4343389
C	1.2890831	0.0223348	3.3973838
H	0.2868022	0.3999025	3.2296560
H	1.4397384	-0.5403424	4.3086790
C	3.7485057	-0.1258536	2.9999528
H	4.3978719	0.7207216	3.2559199
H	3.6942502	-0.7784194	3.8730552
H	4.2316106	-0.6794528	2.1867020
C	2.8871560	2.8821787	0.0681705
C	3.3927152	1.5312320	0.6047250
C	0.9824298	1.5267423	0.8642979
C	1.3647285	2.6714277	-0.1156581
H	3.0824598	3.6653896	0.8095300
H	3.3814208	3.1697695	-0.8645547
H	4.3020991	1.6301095	1.1993882
H	3.5976970	0.8299335	-0.2187612
H	0.3360601	1.8963830	1.6733966
H	1.1153174	2.3663985	-1.1348268
H	0.7975619	3.5811912	0.0968068
C	2.3612200	0.3420920	2.6150573
C	2.3768639	-0.9368554	-2.9452076
H	2.3432569	-2.0248740	-2.7460371
O	2.5463591	-0.1413783	-2.0143480
C	2.2052981	-0.5378133	-4.3840991
H	1.2427338	-0.9041327	-4.7653170
H	2.2518162	0.5483116	-4.4877594
H	2.9872113	-1.0012487	-5.0002587
