31
-0.00502625 (energy)
C	1.2312353	1.3600825	1.7298573
O	1.1756368	2.3914891	2.3973360
O	1.8003936	0.2306551	2.2547645
H	1.8468570	-0.5371802	1.6286629
N	0.0000000	0.0000000	0.0000000
C	2.0157118	-1.3111892	-0.3244548
H	2.6951011	-0.4667679	-0.2991604
H	2.4608665	-2.2745095	-0.5332911
C	-0.2195438	-2.4160908	-0.4316725
H	-0.8231377	-2.3461688	-1.3452755
H	0.3987464	-3.3120039	-0.5100959
H	-0.9082992	-2.5465955	0.4108381
C	-1.5937755	1.6433134	-0.5667804
C	-1.4619834	0.2102429	-0.0213657
C	0.6968359	1.2716729	0.2781996
C	-0.3569998	2.3805469	0.0014337
H	-1.5615001	1.6212822	-1.6620657
H	-2.5330353	2.1172037	-0.2664448
H	-1.9553526	-0.5270824	-0.6564393
H	-1.8896284	0.1307107	0.9899508
H	1.5608379	1.3684665	-0.3950018
H	-0.5844695	2.8976295	0.9367607
H	0.0286313	3.1289359	-0.6954819
C	0.6571895	-1.1943894	-0.2571341
C	2.3797754	4.3014567	-0.5476049
H	2.1729380	4.2769942	0.5392267
O	2.6269914	3.2536980	-1.1551393
C	2.3338495	5.6625283	-1.1835711
H	3.0630278	6.3285434	-0.7031860
H	2.5486643	5.5927015	-2.2520071
H	1.3447275	6.1156380	-1.0347674
