31
-0.0069592 (energy)
C	0.3602659	-0.7837701	-2.4238358
O	1.2598949	-1.4897373	-2.8742448
O	-0.9371574	-0.8853907	-2.8497639
H	-1.4685257	-0.2234088	-2.3328533
N	-0.6528600	1.0265974	-1.0259189
C	-1.7106007	3.2126166	-1.0181725
H	-2.1800525	3.0653179	-0.0542123
H	-1.9293759	4.1446124	-1.5238431
C	-0.9093054	2.2993233	-1.6048758
C	-0.2861532	2.5455342	-2.9618196
H	-0.5172016	1.7364854	-3.6652436
H	-0.6663528	3.4787355	-3.3822577
H	0.8065574	2.6298397	-2.9077958
C	-0.4208100	-0.5628016	0.7328299
C	-1.1270448	0.7479315	0.3549889
C	0.5926938	0.2593863	-1.3161180
C	0.9447459	-0.4333567	0.0275809
H	-0.3282880	-0.6845926	1.8155083
H	-0.9743784	-1.4258995	0.3437356
H	-0.8301481	1.5664697	1.0292760
H	-2.2190995	0.6764439	0.3758451
H	1.4107579	0.9048029	-1.6464619
H	1.4540074	-1.3858788	-0.1348592
H	1.6111602	0.2157809	0.6068762
C	4.2013262	0.4453164	-2.4070229
H	4.1543605	-0.6457261	-2.5859176
O	3.6921746	0.9290003	-1.3897586
C	4.9081262	1.2438792	-3.4661778
H	4.4180729	1.0989980	-4.4382395
H	4.9070883	2.3052478	-3.2091320
H	5.9423692	0.8919675	-3.5771414
