31
-0.00246657 (energy)
C	4.7204667	-0.7708725	0.3372852
O	5.8192307	-1.2129227	0.0088045
O	4.2501803	-0.8495130	1.6209110
H	3.3553784	-0.4171256	1.6327228
N	2.4835352	0.2970238	0.0000001
C	0.0768268	-0.0273887	-0.0081492
H	-0.1407684	1.0219882	0.1427203
H	-0.7739949	-0.6958757	-0.0456886
C	1.3273239	-0.5207749	-0.1231553
C	1.5819304	-1.9995706	-0.3195576
H	2.2683115	-2.3954929	0.4386476
H	0.6427503	-2.5517863	-0.2475634
H	2.0183106	-2.2188586	-1.3021702
C	3.7525278	2.3099980	-0.1040495
C	2.3245927	1.7729897	0.0753268
C	3.7786908	-0.0571952	-0.6491019
C	4.3762421	1.3046851	-1.0935957
H	3.7632260	3.3365748	-0.4803626
H	4.2930615	2.2962762	0.8501022
H	1.6648306	2.1241552	-0.7335072
H	1.8677213	2.0590259	1.0279971
H	3.6455071	-0.7215021	-1.5069347
H	5.4682563	1.2858411	-1.0800923
H	4.0511209	1.5271945	-2.1162669
C	2.8595273	0.4047892	-4.2660516
H	2.7054294	1.4912194	-4.1228520
O	2.4295219	-0.3976498	-3.4298703
C	3.6045980	0.0166379	-5.5123607
H	4.5977727	0.4852464	-5.5199055
H	3.7103091	-1.0686371	-5.5721944
H	3.0735429	0.3852785	-6.3999968
