31
-0.00246528 (energy)
C	1.9204937	0.1827710	1.7021651
O	2.5277438	1.1874955	2.0659868
O	1.5883015	-0.8279722	2.5641949
H	1.0980344	-1.5136336	2.0376255
N	0.8125367	-1.3660289	0.0799208
C	0.9248571	-3.5083476	-1.0582399
H	-0.1379670	-3.5420266	-1.2596645
H	1.5030384	-4.3676336	-1.3737006
C	1.5324467	-2.4814075	-0.4284556
C	3.0212277	-2.4862761	-0.1569003
H	3.2385097	-2.3255441	0.9059744
H	3.4496920	-3.4472698	-0.4486089
H	3.5485898	-1.7060957	-0.7201501
C	-0.9734810	0.2050395	0.2028788
C	-0.6308756	-1.2237265	-0.2452303
C	1.4442304	-0.0262237	0.2534653
C	0.3215683	0.9828562	-0.1081253
H	-1.8443755	0.6050828	-0.3235185
H	-1.1892693	0.2314277	1.2778250
H	-0.7887111	-1.3478092	-1.3280540
H	-1.2150503	-1.9936723	0.2686299
H	2.3132667	0.1105677	-0.3953665
H	0.4262571	1.9150912	0.4513481
H	0.3756196	1.2181845	-1.1771294
C	3.5408953	2.6277765	6.0243616
H	3.7936619	1.6994717	6.5711177
O	3.3869883	3.6879098	6.6411616
C	3.4089784	2.4842813	4.5340311
H	2.6306119	1.7479980	4.2930345
H	3.1595338	3.4447365	4.0780925
H	4.3468424	2.1053045	4.1067126
