31
-0.00224193 (energy)
C	1.8736820	2.6646068	0.7921448
O	1.9236870	3.8676624	0.5456759
O	2.8445994	1.7895272	0.3839730
H	2.5839981	0.8881662	0.7116988
N	0.8870838	0.5442521	1.6802586
C	-0.1005177	-1.6044994	1.1279312
H	0.1294207	-2.0423447	2.0905947
H	-0.5743594	-2.2544615	0.4032210
C	0.1929478	-0.3292290	0.7993542
C	-0.1363871	0.2342650	-0.5660204
H	0.7490689	0.6636173	-1.0501411
H	-0.5252195	-0.5562399	-1.2110755
H	-0.8973083	1.0233426	-0.5170494
C	1.6196232	1.3921521	3.7820877
C	1.1428445	0.1121822	3.0792992
C	0.7364097	2.0263304	1.6097336
C	0.7921053	2.4937458	3.0888486
H	1.4550477	1.3556379	4.8624429
H	2.6911846	1.5506858	3.6106421
H	0.2141388	-0.2668391	3.5339025
H	1.8799483	-0.6967624	3.0996808
H	-0.2052375	2.3264606	1.1426778
H	1.2211590	3.4944002	3.1762328
H	-0.2236454	2.5206197	3.4994570
C	4.4572629	-1.5203501	0.0752927
H	3.9517023	-2.0891451	0.8787002
O	3.8702368	-0.5905750	-0.4894469
C	5.8564892	-1.9638058	-0.2481121
H	5.8572624	-3.0189045	-0.5527645
H	6.2766393	-1.3504542	-1.0480187
H	6.4914287	-1.8913701	0.6448707
