31
-0.00193978 (energy)
C	-2.5540331	2.1627660	-0.1940746
O	-2.8009343	3.3321701	0.0924985
O	-3.1670720	1.1081597	0.4280490
H	-2.8098910	0.2768186	0.0168769
N	-1.3934700	0.2857722	-1.3722145
C	0.1516781	-1.5759155	-1.1619962
H	-0.2203550	-2.0819888	-2.0433487
H	0.9297114	-2.0839890	-0.6063821
C	-0.3183648	-0.3871817	-0.7302890
C	0.2249585	0.2752203	0.5172119
H	-0.5746487	0.5135863	1.2289413
H	0.9331370	-0.3909485	1.0140890
H	0.7536842	1.2104674	0.2940427
C	-2.8189242	0.8890834	-3.1825542
C	-1.9053697	-0.2333050	-2.6675638
C	-1.5592343	1.7661402	-1.2996513
C	-2.1018625	2.1657410	-2.6979482
H	-2.9393021	0.8575784	-4.2688794
H	-3.8157964	0.8131791	-2.7317164
H	-1.0684526	-0.4122094	-3.3606573
H	-2.4255173	-1.1847475	-2.5181230
H	-0.6179881	2.2796790	-1.0869261
H	-2.7479262	3.0445407	-2.6401118
H	-1.2608577	2.4030608	-3.3593566
C	3.7427093	-1.0473610	-1.4597846
H	2.9629008	-1.8106503	-1.6438253
O	3.5357236	-0.1311940	-0.6561634
C	5.0147281	-1.2217811	-2.2412089
H	4.8009616	-1.2087502	-3.3183258
H	5.7245283	-0.4282369	-1.9982109
H	5.4633709	-2.1991020	-2.0189998
