31
-0.0017498 (energy)
C	1.8736820	1.2428145	-2.4865709
O	1.9236870	1.2089985	-3.7141483
O	2.8445994	0.6888878	-1.6956640
H	2.5839981	0.8551149	-0.7510878
N	0.8870838	1.7492401	-0.2442098
C	-0.1005177	0.8321769	1.7759867
H	0.1294207	1.7041843	2.3743449
H	-0.5743594	0.0056120	2.2902297
C	0.1929478	0.7300402	0.4630337
C	-0.1363871	-0.5167416	-0.3289944
H	0.7490689	-0.9189511	-0.8358906
H	-0.5252195	-1.2892665	0.3374883
H	-0.8973083	-0.3314927	-1.0975804
C	1.6196232	3.9663739	-0.7142495
C	1.1428445	3.0519979	0.4242368
C	0.7364097	1.9371467	-1.7160185
C	0.7921053	3.4749565	-1.9194872
H	1.4550477	5.0239755	-0.4906883
H	2.6911846	3.8250621	-0.9001459
H	0.2141388	3.4338784	0.8764411
H	1.8799483	2.9315981	1.2244310
H	-0.2052375	1.5293037	-2.0926925
H	1.2211590	3.7347750	-2.8897653
H	-0.2236454	3.8839935	-1.8746514
C	6.0577310	-1.5955741	0.4537942
H	6.2678238	-2.1480082	-0.4817594
O	6.9246211	-1.5097177	1.3308018
C	4.6858618	-0.9894382	0.5520400
H	3.9201960	-1.7716080	0.4625234
H	4.5664220	-0.4659523	1.5029729
H	4.5221123	-0.2892657	-0.2778744
