31
-0.00119276 (energy)
C	2.3297571	-0.3491123	0.8416525
O	3.4591029	-0.0228203	1.2004029
O	1.9333466	-1.6572925	0.7605830
H	0.9857236	-1.6588470	0.4609547
N	0.0000000	0.0000000	0.0000000
C	-1.5368014	-0.2959442	-1.8569366
H	-2.4198297	-0.2301082	-1.2346604
H	-1.7016621	-0.4899933	-2.9092424
C	-0.2795216	-0.1735673	-1.3829420
C	0.9255157	-0.2870777	-2.2913667
H	1.6324346	-1.0445886	-1.9319345
H	0.6082103	-0.5700737	-3.2970581
H	1.4742750	0.6595849	-2.3734377
C	-0.4298110	0.6704358	2.2447744
C	-1.1232323	0.2395658	0.9435940
C	1.2397522	0.6757983	0.4801497
C	0.7893647	1.4672128	1.7371996
H	-1.0870036	1.2646810	2.8855211
H	-0.1048148	-0.2063101	2.8178926
H	-1.7761678	1.0388170	0.5592914
H	-1.7297404	-0.6651878	1.0517507
H	1.6640473	1.3476636	-0.2705095
H	1.5984587	1.5550858	2.4656758
H	0.4857573	2.4775752	1.4404486
C	4.1979130	-4.6220298	-1.4687293
H	3.5144136	-5.3393710	-0.9759482
O	5.1193525	-5.0341441	-2.1822581
C	3.9135221	-3.1705973	-1.2012533
H	3.9603801	-2.9691855	-0.1226966
H	4.6330326	-2.5373103	-1.7245401
H	2.8953252	-2.9191442	-1.5266142
