31
-0.000982188 (energy)
C	-2.9263302	-0.8298685	-1.4093320
O	-3.3403476	-1.4267110	-2.4007748
O	-3.1075490	0.5158215	-1.2323377
H	-2.6968696	0.7550318	-0.3594748
N	-1.7317832	-0.5582622	0.7717948
C	0.1845439	0.4019201	1.9134144
H	-0.2847112	0.3691604	2.8881080
H	1.1729264	0.8415340	1.8684583
C	-0.4053822	-0.0471451	0.7861491
C	0.2863965	0.0328306	-0.5574583
H	-0.3309173	0.5537682	-1.2992779
H	1.2285046	0.5759627	-0.4593534
H	0.5191547	-0.9592909	-0.9643503
C	-3.6782215	-1.5985664	1.6675509
C	-2.4380794	-0.7817230	2.0604465
C	-2.1939924	-1.5366007	-0.2545820
C	-3.1581044	-2.4798779	0.5135824
H	-4.0690336	-2.1839413	2.5043232
H	-4.4801671	-0.9382660	1.3159017
H	-1.7938954	-1.3473768	2.7517341
H	-2.6785333	0.1752600	2.5342549
H	-1.3666753	-2.1003648	-0.6934840
H	-3.9432532	-2.8673736	-0.1394265
H	-2.5932830	-3.3309397	0.9107491
C	3.3806086	2.2957645	-0.8158415
H	3.1795452	2.0461947	-1.8750258
O	2.4414516	2.4801075	-0.0335283
C	4.8324792	2.3849261	-0.4374237
H	5.3356007	3.1468854	-1.0476153
H	4.9371522	2.6340774	0.6206613
H	5.3356670	1.4309166	-0.6435336
