31
-0.00512834 (energy)
C	-1.0157633	-2.0768148	-1.1287747
O	-0.4434605	-3.0903681	-1.5234513
O	-2.2445767	-2.1139629	-0.5257103
H	-2.4849369	-1.1785229	-0.2913009
N	-1.3454918	0.3757363	-0.7623071
C	-2.6316774	2.3470875	-1.3598492
H	-2.3766614	2.8805659	-0.4533898
H	-3.3096013	2.8476245	-2.0396015
C	-2.1714476	1.1132974	-1.6537033
C	-2.5678388	0.4014508	-2.9290006
H	-2.9918499	-0.5889236	-2.7237645
H	-3.3182037	0.9868104	-3.4642494
H	-1.7166765	0.2587749	-3.6066501
C	0.2440166	0.0619312	0.9836090
C	-0.8133750	1.0426847	0.4548387
C	-0.3979606	-0.6715245	-1.2415378
C	0.8356487	-0.5358746	-0.3092462
H	0.9956302	0.5594838	1.6025631
H	-0.2253143	-0.7220093	1.5901865
H	-0.3586068	2.0095736	0.1881417
H	-1.6216235	1.2378878	1.1667088
H	-0.1127148	-0.5267933	-2.2868159
H	1.3370566	-1.4957766	-0.1670824
H	1.5533487	0.1614558	-0.7561329
C	2.7607188	-4.0909510	-0.6113520
H	2.3039871	-3.2909025	-1.2244601
O	3.7363350	-3.8417222	0.1056349
C	2.1140561	-5.4427734	-0.7274619
H	2.1385139	-5.7846608	-1.7708035
H	2.6266409	-6.1676403	-0.0915362
H	1.0563498	-5.3814044	-0.4388366
