31
-0.00634596 (energy)
C	0.4243079	0.3491124	2.4405142
O	0.5814992	0.0228203	3.6149991
O	0.4133059	1.6572925	2.0360485
H	0.2827826	1.6588470	1.0507922
N	0.0000000	-0.0000000	0.0000000
C	-1.5618629	0.2959441	-1.8359076
H	-0.7957042	0.2301081	-2.5974636
H	-2.5695540	0.4899931	-2.1809946
C	-1.3133936	0.1735673	-0.5154204
C	-2.4172698	0.2870776	0.5135634
H	-2.1860533	1.0445885	1.2721574
H	-3.3525830	0.5700735	0.0264422
H	-2.5933850	-0.6595850	1.0397344
C	2.2853072	-0.6704357	-0.0334803
C	1.1243059	-0.2395657	-0.9423145
C	0.2575745	-0.6757983	1.3042947
C	1.5737360	-1.4672127	1.0790340
H	3.0304398	-1.2646809	-0.5694242
H	2.7932834	0.2063102	0.3860994
H	0.8592228	-1.0388169	-1.6520639
H	1.3361384	0.6651879	-1.5208272
H	-0.5553585	-1.3476637	1.5917932
H	2.1506474	-1.5550856	2.0023346
H	1.3342142	-2.4775751	0.7285088
C	3.5948600	2.9341229	2.0681507
H	2.8368535	3.5261083	1.5208280
O	3.7381190	1.7313006	1.8217616
C	4.3942609	3.6939960	3.0892428
H	3.7256400	4.1331600	3.8416576
H	5.1147236	3.0349845	3.5783379
H	4.9233351	4.5283464	2.6099169
