31
-0.00612467 (energy)
C	2.0416247	-0.2775884	-1.5407077
O	2.3768729	-1.2609493	-2.1973661
O	2.1762622	1.0013362	-2.0111052
H	1.8286048	1.6110538	-1.3074379
N	1.1818172	0.9646659	0.4531733
C	1.7272776	2.4742906	2.2755513
H	0.7040797	2.7992810	2.4124758
H	2.4711622	2.9442870	2.9063607
C	2.1017469	1.5541487	1.3625829
C	3.5486242	1.1418294	1.1989560
H	3.8869562	1.2578340	0.1622193
H	4.1860083	1.7600152	1.8343868
H	3.7167730	0.0952826	1.4826960
C	-0.9408109	0.2091278	-0.3193848
C	-0.2723005	1.2228879	0.6213261
C	1.4082452	-0.3839947	-0.1418709
C	-0.0074354	-1.0151123	-0.2249337
H	-1.9676953	-0.0172826	-0.0196639
H	-0.9675750	0.5941032	-1.3459558
H	-0.5690380	1.0480757	1.6673678
H	-0.5053134	2.2640540	0.3767710
H	2.0733981	-1.0008593	0.4680212
H	-0.0895106	-1.7037023	-1.0688175
H	-0.2091580	-1.5762268	0.6945930
C	2.4377353	-1.1557920	3.8332356
H	2.6794871	-0.0922723	4.0204911
O	2.3536021	-1.5774417	2.6742941
C	2.2315465	-1.9974350	5.0613241
H	1.4150022	-1.5850296	5.6689622
H	1.9985553	-3.0276757	4.7840228
H	3.1332909	-1.9786849	5.6876776
