31
-0.00607798 (energy)
C	0.4359861	0.3491124	-2.4384550
O	0.6899721	0.0228203	-3.5958724
O	0.3079892	1.6572925	-2.0546187
H	0.0936634	1.6588470	-1.0841390
N	0.0000000	-0.0000000	0.0000000
C	0.8397536	0.2959441	2.2593774
H	-0.1406676	0.2301081	2.7129642
H	1.6686467	0.4899931	2.9283039
C	1.0579021	0.1735673	0.9335438
C	2.4471396	0.2870776	0.3441633
H	2.4893217	1.0445885	-0.4477626
H	3.1594412	0.5700735	1.1218036
H	2.7925948	-0.6595850	-0.0900407
C	-2.1589372	-0.6704357	-0.7501600
C	-1.3787926	-0.2395657	0.5009507
C	0.2040543	-0.6757983	-1.3137318
C	-1.1097767	-1.4672127	-1.5522098
H	-3.0424364	-1.2646809	-0.5013879
H	-2.4927740	0.2063102	-1.3181741
H	-1.3724445	-1.0388169	1.2585607
H	-1.7757130	0.6651879	0.9721237
H	1.0662917	-1.3476637	-1.3058525
H	-1.3361086	-1.5550856	-2.6171438
H	-1.0045865	-2.4775751	-1.1409025
C	0.9588191	4.6174932	0.3136245
H	2.0002270	4.9865822	0.3754774
O	0.7334649	3.4029400	0.2679294
C	-0.1032651	5.6807744	0.2915289
H	0.0510013	6.3507946	-0.5648132
H	-1.0954773	5.2287865	0.2298972
H	-0.0356069	6.3008682	1.1952542
