31
-0.00582839 (energy)
C	1.5602278	1.0207210	-1.7728184
O	1.2678490	1.4913078	-2.8699296
O	2.5254589	1.5691376	-0.9711845
H	2.5665602	1.0201988	-0.1436909
N	1.4653967	-0.6083149	0.1233027
C	2.6354578	-2.3544203	1.3397026
H	2.0420855	-2.2315916	2.2364319
H	3.4324143	-3.0858441	1.3850989
C	2.4417521	-1.6376053	0.2131796
C	3.3073810	-1.8359355	-1.0122128
H	3.7557114	-0.8927329	-1.3470524
H	4.1160449	-2.5343774	-0.7876547
H	2.7420324	-2.2476504	-1.8577389
C	-0.5526711	0.5367636	0.6612910
C	0.4961691	-0.4274028	1.2356341
C	0.8515367	-0.2082738	-1.1756875
C	-0.6231776	0.1237460	-0.8230675
H	-1.5160875	0.4500433	1.1710893
H	-0.2148908	1.5758721	0.7557817
H	0.0414370	-1.3943618	1.5021387
H	1.0040492	-0.0399833	2.1245058
H	0.9025089	-1.0051646	-1.9222030
H	-1.0277503	0.8958173	-1.4812917
H	-1.2355406	-0.7779059	-0.9375495
C	0.5190472	-4.0714264	-3.4000254
H	0.8528727	-4.8107006	-2.6472857
O	0.7835082	-2.8730926	-3.2514706
C	-0.2486220	-4.6349526	-4.5628669
H	-1.1464890	-5.1565650	-4.2053723
H	-0.5367698	-3.8388112	-5.2525816
H	0.3606474	-5.3794476	-5.0923302
