31
-0.00572546 (energy)
C	-0.4232693	-0.1492015	0.0544534
O	0.2912857	-0.7513918	0.8528069
O	0.0700217	0.7926031	-0.8085165
H	-0.6944126	1.1224651	-1.3512873
N	-2.5609350	0.5155765	-1.0620061
C	-4.1942041	2.2811525	-1.3977569
H	-4.5714004	1.8598403	-2.3205353
H	-4.6266216	3.2233113	-1.0854535
C	-3.2211998	1.7082917	-0.6591821
C	-2.7167753	2.3434429	0.6184617
H	-1.6287685	2.4799407	0.5995347
H	-3.1787165	3.3233689	0.7546236
H	-2.9554587	1.7410286	1.5039954
C	-2.3225057	-1.5752302	-2.1777627
C	-3.0720120	-0.2357797	-2.2383039
C	-1.9335301	-0.4145691	-0.0794457
C	-2.1945204	-1.8294877	-0.6618973
H	-2.8605003	-2.3731093	-2.6969318
H	-1.3310086	-1.4841699	-2.6375582
H	-4.1592769	-0.3858514	-2.1480312
H	-2.8869430	0.3261074	-3.1592606
H	-2.3682053	-0.3192343	0.9189967
H	-1.3972820	-2.5260207	-0.3930388
H	-3.1374870	-2.2185926	-0.2612950
C	2.5881704	-2.6750525	1.9370167
H	2.1084206	-2.2563288	2.8420546
O	2.5259246	-3.8880890	1.7074953
C	3.2881539	-1.6779456	1.0567446
H	4.0718667	-1.1582266	1.6239600
H	3.7304211	-2.1761129	0.1914090
H	2.5797581	-0.9101106	0.7184871
