31
-0.00548335 (energy)
C	0.4232693	-0.0795347	0.1374791
O	-0.2912857	-0.9703286	0.5918882
O	-0.0700216	0.9338673	-0.6401643
H	0.6944127	1.5256721	-0.8707639
N	2.5609351	1.1354006	-0.3233283
C	4.1942042	1.7726394	-2.0037789
H	4.5714006	2.6082387	-1.4286286
H	4.6266217	1.6286847	-2.9858551
C	3.2211999	0.9458091	-1.5678732
C	2.7167754	-0.2021317	-2.4152354
H	1.6287686	-0.1597895	-2.5463729
H	3.1787165	-0.1660627	-3.4039184
H	2.9554587	-1.1788202	-1.9757444
C	2.3225058	1.8711418	1.9294633
C	3.0720121	2.1633562	0.6208749
C	1.9335301	0.0062495	0.4220665
C	2.1945204	0.3341544	1.9166309
H	2.8605004	2.2438733	2.8053736
H	1.3310087	2.3397645	1.9196290
H	4.1592770	2.0483952	0.7529911
H	2.8869432	3.1678922	0.2274465
H	2.3682053	-0.9604697	0.1548024
H	1.3972819	-0.0515711	2.5558953
H	3.1374870	-0.1279292	2.2302606
C	4.9967791	-2.8066313	0.0838505
H	4.8029973	-2.9146724	-1.0002891
O	4.3067155	-2.0383092	0.7631925
C	6.1231792	-3.6416270	0.6252219
H	7.0590386	-3.3954570	0.1059780
H	6.2429794	-3.4729361	1.6974943
H	5.9277399	-4.7059460	0.4385626
