31
-0.00547726 (energy)
C	1.0719867	2.3912887	-2.0906672
O	1.5531789	3.5209440	-2.0365989
O	-0.1713896	2.1458324	-2.6091412
H	-0.3254322	1.1656997	-2.5510074
N	0.9741342	-0.0804423	-1.7178442
C	-0.0946333	-1.8946735	-0.5079448
H	0.1853063	-2.6452374	-1.2356733
H	-0.7003099	-2.2315396	0.3238355
C	0.2505568	-0.5941452	-0.6072896
C	-0.1769039	0.4217282	0.4297802
H	-0.7017965	1.2692615	-0.0273014
H	-0.8504769	-0.0442551	1.1518214
H	0.6753009	0.8279329	0.9890542
C	2.4742481	-0.1541143	-3.5664827
C	1.5338763	-1.0249811	-2.7198160
C	1.8277131	1.1380715	-1.6136339
C	3.0413272	0.8427622	-2.5352052
H	3.2529322	-0.7441910	-4.0574476
H	1.9129790	0.3759239	-4.3454608
H	2.0888293	-1.8295994	-2.2124383
H	0.7285303	-1.4875308	-3.2991211
H	2.1557589	1.3291237	-0.5885468
H	3.4418070	1.7588249	-2.9750658
H	3.8365657	0.3699713	-1.9477231
C	2.6214386	3.3288230	1.6287996
H	2.1574994	3.2826217	0.6252017
O	3.0585310	2.3004612	2.1574152
C	2.6673731	4.6934195	2.2571661
H	1.6513314	5.0986775	2.3544901
H	3.1393041	4.6456479	3.2408204
H	3.2248132	5.3868835	1.6135968
