31
-0.00511936 (energy)
C	0.1741467	-0.3719170	-0.1890340
O	0.9917072	0.5354537	-0.3263782
O	-1.0273415	-0.1896893	0.4420509
H	-1.5079934	-1.0591777	0.4149852
N	-0.7117547	-2.7055860	-0.3539410
C	-1.3335382	-4.7149854	0.8598359
H	-1.9800850	-5.0809007	0.0728262
H	-1.2867807	-5.3115691	1.7621014
C	-0.6260560	-3.5695158	0.7716999
C	0.2547702	-3.0916594	1.9057340
H	0.0023486	-2.0686342	2.2097922
H	0.1309293	-3.7430924	2.7731918
H	1.3186122	-3.0999019	1.6370061
C	-1.0814633	-2.1239207	-2.6339004
C	-1.4584978	-3.1538687	-1.5584449
C	0.4018706	-1.7913800	-0.7390369
C	0.3847593	-1.7898687	-2.2911533
H	-1.1997443	-2.5214260	-3.6456242
H	-1.7098087	-1.2290857	-2.5489135
H	-1.1356085	-4.1659378	-1.8487453
H	-2.5321604	-3.1922291	-1.3489073
H	1.3692153	-2.1329325	-0.3615390
H	0.7297354	-0.8350362	-2.6940412
H	1.0502877	-2.5775671	-2.6621976
C	1.7162306	4.2297676	-1.6886349
H	1.1030374	4.6939204	-0.8929345
O	1.5308625	4.5357721	-2.8718560
C	2.7451478	3.2406912	-1.2173226
H	2.2592008	2.4228690	-0.6686248
H	3.3013501	2.8345226	-2.0648146
H	3.4398138	3.7232569	-0.5170492
