31
-0.00421392 (energy)
C	-0.1231274	-0.4224953	0.1035400
O	1.0622159	-0.4470224	-0.2204197
O	-0.8577256	0.7330216	0.1175064
H	-1.7793528	0.4915661	0.4004753
N	-2.2974383	-1.3515880	0.9203541
C	-3.9102662	-1.4063104	2.7351122
H	-4.7250274	-1.7318826	2.1014972
H	-4.1513888	-1.2220896	3.7743928
C	-2.6530334	-1.2047753	2.2888514
C	-1.5492080	-0.7353499	3.2115888
H	-1.0610379	0.1694680	2.8298257
H	-1.9596226	-0.5083841	4.1976066
H	-0.7694705	-1.4955090	3.3465336
C	-2.4669308	-2.2015759	-1.2982099
C	-3.2876949	-1.9217174	-0.0303069
C	-0.9086231	-1.6875883	0.4931203
C	-1.0940198	-2.6202797	-0.7336947
H	-2.9220965	-2.9756515	-1.9220826
H	-2.3723348	-1.2932222	-1.9054294
H	-3.7134126	-2.8511966	0.3791423
H	-4.1110628	-1.2184568	-0.1903655
H	-0.3416684	-2.1902043	1.2810659
H	-0.2702925	-2.5161909	-1.4433926
H	-1.1242416	-3.6624478	-0.3959921
C	3.8745709	1.8636791	-0.1884427
H	3.6919278	1.3724060	-1.1630581
O	5.0315400	2.0405239	0.2092514
C	2.6430143	2.2751997	0.5685231
H	2.0099614	1.3994504	0.7643653
H	2.9158396	2.7496379	1.5135371
H	2.0440898	2.9706943	-0.0342953
