31
-0.00406307 (energy)
C	-0.4359860	0.3491124	2.4384551
O	-0.6899719	0.0228203	3.5958724
O	-0.3079891	1.6572925	2.0546187
H	-0.0936633	1.6588470	1.0841390
N	0.0000000	-0.0000000	0.0000000
C	-0.8397537	0.2959441	-2.2593774
H	0.1406675	0.2301081	-2.7129642
H	-1.6686469	0.4899931	-2.9283038
C	-1.0579021	0.1735673	-0.9335438
C	-2.4471396	0.2870776	-0.3441632
H	-2.4893217	1.0445885	0.4477627
H	-3.1594413	0.5700735	-1.1218034
H	-2.7925948	-0.6595850	0.0900408
C	2.1589372	-0.6704357	0.7501599
C	1.3787925	-0.2395657	-0.5009507
C	-0.2040542	-0.6757983	1.3137318
C	1.1097768	-1.4672127	1.5522097
H	3.0424364	-1.2646809	0.5013877
H	2.4927740	0.2063102	1.3181740
H	1.3724444	-1.0388169	-1.2585607
H	1.7757130	0.6651879	-0.9721238
H	-1.0662916	-1.3476637	1.3058526
H	1.3361087	-1.5550856	2.6171437
H	1.0045866	-2.4775751	1.1409025
C	4.2203030	2.8333532	-0.6783199
H	5.0311233	2.1160120	-0.9076120
O	3.1103919	2.4212390	-0.3229731
C	4.5790253	4.2847857	-0.8323978
H	4.9038814	4.4861973	-1.8619359
H	3.7239321	4.9180728	-0.5867562
H	5.4245375	4.5362388	-0.1784146
