31
-0.00297631 (energy)
C	2.6097160	1.9329715	-0.8314507
O	3.1940226	2.9299880	-0.4129604
O	1.9164419	1.9285993	-2.0122982
H	1.5478458	1.0135274	-2.1329174
N	1.7661622	-0.4215684	-0.7806076
C	-0.1822200	-1.8602094	-0.6026342
H	0.3067822	-2.7064951	-1.0673691
H	-1.2226682	-1.9921574	-0.3338618
C	0.4281338	-0.6786320	-0.3751638
C	-0.3023979	0.4813941	0.2658493
H	-0.2420742	1.3867594	-0.3501243
H	-1.3569588	0.2305378	0.3968339
H	0.1019172	0.7311808	1.2548784
C	4.0157394	-0.9620213	-1.3467763
C	2.5925100	-1.5386548	-1.3085088
C	2.6249819	0.5837772	-0.0907225
C	4.0463916	-0.0395533	-0.1110626
H	4.7790738	-1.7440563	-1.3103398
H	4.1728297	-0.3816688	-2.2639916
H	2.5342686	-2.4051064	-0.6312457
H	2.2238028	-1.8550524	-2.2893637
H	2.2991057	0.7745593	0.9351067
H	4.8202558	0.7303210	-0.1492739
H	4.1967858	-0.6300615	0.7998450
C	3.9777025	-5.3700007	-0.8524371
H	5.0127131	-4.9854990	-0.7783123
O	3.0243714	-4.6474567	-0.5408249
C	3.8475628	-6.7844799	-1.3437518
H	4.3964182	-7.4664974	-0.6806856
H	2.7969519	-7.0795162	-1.3855492
H	4.2979807	-6.8808928	-2.3405675
