31
-0.00271427 (energy)
C	-2.6097160	-1.9329717	-0.8314505
O	-3.1940225	-2.9299881	-0.4129600
O	-1.9164417	-1.9285997	-2.0122979
H	-1.5478456	-1.0135277	-2.1329173
N	-1.7661621	0.4215683	-0.7806078
C	0.1822200	1.8602093	-0.6026345
H	-0.3067822	2.7064949	-1.0673696
H	1.2226682	1.9921574	-0.3338620
C	-0.4281337	0.6786320	-0.3751639
C	0.3023979	-0.4813941	0.2658494
H	0.2420743	-1.3867595	-0.3501240
H	1.3569588	-0.2305378	0.3968340
H	-0.1019173	-0.7311806	1.2548785
C	-4.0157393	0.9620210	-1.3467767
C	-2.5925099	1.5386545	-1.3085091
C	-2.6249819	-0.5837773	-0.0907225
C	-4.0463916	0.0395533	-0.1110628
H	-4.7790738	1.7440560	-1.3103403
H	-4.1728296	0.3816683	-2.2639919
H	-2.5342686	2.4051062	-0.6312462
H	-2.2238027	1.8550520	-2.2893641
H	-2.2991058	-0.7745592	0.9351067
H	-4.8202557	-0.7303211	-0.1492741
H	-4.1967858	0.6300615	0.7998447
C	3.2235877	0.4801098	2.5026170
H	3.1277603	-0.6048501	2.6982234
O	3.1055059	0.9151113	1.3515990
C	3.4974622	1.3325655	3.7098412
H	4.4281606	1.0108217	4.1959773
H	3.5763337	2.3839864	3.4254647
H	2.6948441	1.2093156	4.4490482
