31
-0.00267116 (energy)
C	1.0157634	-1.5655035	1.7710141
O	0.4434607	-2.3829445	2.4885445
O	2.2445767	-1.8066716	1.2170243
H	2.4849369	-1.0078184	0.6768120
N	1.3454919	0.6138011	0.5878247
C	2.6316774	2.6706367	0.4750884
H	2.3766614	2.8619149	-0.5591652
H	3.3096014	3.3734768	0.9426527
C	2.1714476	1.6117575	1.1732021
C	2.5678390	1.3790181	2.6150555
H	2.9918501	0.3781757	2.7609249
H	3.3182038	2.1121422	2.9178199
H	1.7166767	1.4767166	3.3006359
C	-0.2440167	-0.2782180	-0.9454718
C	0.8133750	0.8242389	-0.7840280
C	0.3979607	-0.2063954	1.3963388
C	-0.8356487	-0.3977889	0.4738764
H	-0.9956303	-0.0223664	-1.6972714
H	0.2253142	-1.2223429	-1.2473445
H	0.3586067	1.8240331	-0.8641104
H	1.6216234	0.7641958	-1.5197305
H	0.1127149	0.2871138	2.3290779
H	-1.3370566	-1.3484245	0.6685922
H	-1.5533487	0.4103317	0.6553114
C	4.0729990	-5.7583530	0.3483302
H	4.8795967	-5.7677051	1.1058892
O	3.6219348	-6.8225842	-0.0898082
C	3.6012467	-4.3959414	-0.0763608
H	4.4382878	-3.8190906	-0.4918752
H	2.8082004	-4.4813148	-0.8222600
H	3.2315130	-3.8363843	0.7931253
