31
-0.00796508 (energy)
C	2.6402611	1.6237465	0.3612471
O	2.8818043	2.5063682	1.1796636
O	2.4965384	1.8926390	-0.9786073
H	2.2557879	1.0550259	-1.4457453
N	1.8450778	-0.6616571	-0.2956233
C	-0.2259730	-1.4957181	-1.2472795
H	0.2665402	-2.2536917	-1.8430184
H	-1.3023784	-1.4313801	-1.3417223
C	0.4332668	-0.6322432	-0.4443331
C	-0.3055210	0.4483781	0.3156501
H	-0.0054222	1.4531979	-0.0045383
H	-1.3786474	0.3525295	0.1393880
H	-0.1369784	0.3835229	1.3973565
C	3.7602727	-1.9467607	0.3572215
C	2.5964503	-1.8971379	-0.6504023
C	2.5632339	0.1392690	0.7233614
C	3.9932139	-0.4707628	0.7272866
H	3.4622151	-2.5162538	1.2455690
H	4.6542936	-2.4203874	-0.0585388
H	1.9372770	-2.7673578	-0.5591773
H	2.9516380	-1.8538881	-1.6883144
H	2.1126387	0.0637401	1.7197657
H	4.6067476	0.0214560	-0.0371313
H	4.4827524	-0.3281203	1.6929462
C	1.5354819	2.2211379	4.2397336
H	2.1097520	3.0637182	3.8097858
O	1.3832316	1.1799741	3.5910348
C	0.9853046	2.4515292	5.6193360
H	0.3208237	3.3258929	5.6196762
H	0.4358240	1.5727592	5.9634451
H	1.8017828	2.6737604	6.3191860
