31
-0.00568457 (energy)
C	-0.4266190	-0.0553475	0.1545617
O	0.2269803	0.4849427	1.0422914
O	0.1295600	-0.3950997	-1.0551501
H	-0.5788724	-0.7668594	-1.6362633
N	-2.5753446	-0.6968447	-0.9671889
C	-3.7814861	0.1792139	-2.8824702
H	-4.1299625	-0.7946768	-3.2019995
H	-4.0700921	1.0212366	-3.4984345
C	-2.9964942	0.3730905	-1.8002926
C	-2.4880445	1.7525559	-1.4401836
H	-1.3948204	1.8145370	-1.4972991
H	-2.8971283	2.4875404	-2.1361029
H	-2.7821981	2.0513060	-0.4268113
C	-3.2450142	-2.4970928	0.4667980
C	-3.3287159	-1.9810001	-0.9819577
C	-1.8849130	-0.4848913	0.3266197
C	-1.9395561	-1.8831456	1.0040384
H	-4.1010796	-2.1296017	1.0450924
H	-3.2482811	-3.5894627	0.5230971
H	-4.3629093	-1.7970395	-1.2929508
H	-2.8848429	-2.6861459	-1.6968258
H	-2.3794663	0.2642744	0.9556904
H	-1.0775446	-2.4818056	0.6853218
H	-1.9048442	-1.7984361	2.0922078
C	3.1614448	-0.5637995	3.1670808
H	2.9196932	0.3712695	3.7072520
O	3.2455781	-1.6317550	3.7838504
C	3.3676337	-0.4191355	1.6853127
H	4.1841780	0.2873675	1.4849239
H	3.6006247	-1.3865916	1.2355120
H	2.4658892	-0.0021598	1.2175504
