31
-0.00559023 (energy)
C	-1.1501066	-1.0661253	-2.2995813
O	-2.2011303	-0.8244586	-2.8861954
O	-0.0365509	-1.5261200	-2.9603140
H	0.6748360	-1.7033543	-2.2967697
N	0.2055907	-1.5566945	-0.2481693
C	1.1309376	-3.5950591	0.6895734
H	2.0230913	-3.1070700	1.0609579
H	1.0584206	-4.6618366	0.8581992
C	0.1538022	-2.9511142	0.0147029
C	-1.0405794	-3.7003187	-0.5359965
H	-1.0829619	-3.6566300	-1.6307740
H	-0.9777580	-4.7519874	-0.2498115
H	-1.9897208	-3.3056464	-0.1538110
C	0.3251887	0.6497857	0.6807067
C	1.0867312	-0.6849409	0.5767419
C	-0.9394466	-0.8007461	-0.8076264
C	-0.5358611	0.6854743	-0.5948712
H	-0.3167794	0.6461827	1.5696308
H	0.9963879	1.5100811	0.7570978
H	1.2442975	-1.1450490	1.5583670
H	2.0695250	-0.5627430	0.1029546
H	-1.8840463	-1.0174687	-0.2954498
H	0.0606418	1.0318345	-1.4476646
H	-1.4152777	1.3282724	-0.5178619
C	3.3899567	-0.0870678	-2.6236722
H	3.8636950	-1.0492136	-2.3508530
O	2.7681281	0.5604720	-1.7739467
C	3.5657147	0.3367409	-4.0549561
H	3.1527944	-0.4264010	-4.7281263
H	3.0685706	1.2923516	-4.2344910
H	4.6337868	0.4256573	-4.2939731
