31
-0.00547888 (energy)
C	0.6558955	-1.5742799	-2.6133264
O	0.8282866	-1.1285298	-3.7441481
O	-0.4545285	-2.3133982	-2.2834297
H	-0.4185353	-2.5256108	-1.3183158
N	1.0947432	-1.6461471	-0.1457137
C	-0.1078272	-0.8017018	1.7859424
H	0.1651493	-1.6395141	2.4148718
H	-0.7444997	-0.0493430	2.2335046
C	0.2738077	-0.6813321	0.4956808
C	-0.1929526	0.4822315	-0.3524814
H	-0.8146740	0.1532336	-1.1935911
H	-0.7930945	1.1619252	0.2555495
H	0.6450409	1.0554983	-0.7670097
C	3.2008261	-2.7907035	-0.1543418
C	1.9228196	-2.5707217	0.6766565
C	1.6839782	-1.4354179	-1.4888280
C	2.7411588	-2.5692018	-1.6067269
H	3.9581594	-2.0465984	0.1196581
H	3.6356693	-3.7823352	0.0006755
H	2.1381785	-2.1078633	1.6459330
H	1.3877722	-3.5104460	0.8662164
H	2.1617538	-0.4546260	-1.5953166
H	2.2667965	-3.4770651	-1.9989034
H	3.5471553	-2.2907498	-2.2888760
C	2.3007193	1.6067724	-4.9490498
H	2.0821253	0.6910017	-4.3675315
O	2.8787631	2.5584972	-4.4123026
C	1.8502347	1.5846088	-6.3828037
H	0.7653061	1.4226566	-6.4352286
H	2.1055687	2.5236846	-6.8783015
H	2.3216728	0.7469917	-6.9138000
