31
-0.00500056 (energy)
C	-0.2735706	-0.3256378	0.1675577
O	0.8874720	-0.6815150	0.3478386
O	-0.5835570	0.8642965	-0.4457399
H	-1.5659923	0.9764380	-0.4413176
N	-2.7369953	-0.4113623	0.6269643
C	-4.2420789	0.9926414	1.9130653
H	-5.0687531	0.8632690	1.2261369
H	-4.4185636	1.6366530	2.7650100
C	-3.0277666	0.4283192	1.7344738
C	-1.8909905	0.6981325	2.6967966
H	-1.0560471	1.2162487	2.2103114
H	-2.2433623	1.3329612	3.5120771
H	-1.4939004	-0.2238844	3.1382779
C	-3.2877106	-2.4216893	-0.5566602
C	-3.8519656	-1.0569180	-0.1193202
C	-1.4834436	-1.1939040	0.5183487
C	-1.7694641	-2.1835356	-0.6460474
H	-3.5069016	-3.1789462	0.2054680
H	-3.7138323	-2.7672790	-1.5029373
H	-4.7213298	-1.1640531	0.5385872
H	-4.1552923	-0.4424760	-0.9770757
H	-1.2429993	-1.7427765	1.4362199
H	-1.5134143	-1.7120406	-1.6026920
H	-1.1720545	-3.0925753	-0.5499127
C	2.2369866	1.3850756	-2.7826295
H	2.0102932	2.4463626	-2.5661511
O	1.8933792	0.8851888	-3.8596900
C	2.9663852	0.6455857	-1.6962547
H	2.3810242	0.6655452	-0.7672762
H	3.1477840	-0.3894115	-1.9936635
H	3.9224140	1.1402080	-1.4790653
