31
-0.00807705 (energy)
C	-0.4645474	0.0833785	0.1372287
O	0.1025260	1.1388754	-0.1606981
O	0.1770985	-1.1368504	0.0741675
H	1.0934441	-1.0249120	-0.2606562
C	-3.1966559	-1.8375834	-2.4386483
H	-3.2060804	-2.8706025	-2.1137081
H	-3.4382283	-1.6517946	-3.4776087
C	-2.9055612	-0.8071648	-1.6127185
C	-2.8655929	0.6219279	-2.1147521
H	-1.8802631	1.0854645	-1.9879798
H	-3.1125358	0.6497508	-3.1781961
H	-3.5910731	1.2477346	-1.5788654
C	-3.0137498	-1.8183566	1.9255396
C	-2.9309184	-2.2489333	0.4523630
N	-2.6906600	-0.9766663	-0.2378370
C	-1.9120003	-0.0481847	0.5954415
C	-1.9940554	-0.6584667	2.0339913
H	-4.0250230	-1.4600721	2.1473903
H	-2.7826106	-2.6339309	2.6172113
H	-3.8624107	-2.6914828	0.0855493
H	-2.1168731	-2.9717131	0.2841747
H	-2.3291963	0.9621021	0.5567783
H	-1.0146074	-1.0433990	2.3313643
H	-2.2937318	0.0977184	2.7643804
C	3.0999213	0.5371556	-1.3040452
H	2.8471550	1.5964784	-1.1077614
O	3.2538283	-0.2480859	-0.3618559
C	3.2318381	0.1622740	-2.7535761
H	4.0102047	0.7717282	-3.2318625
H	3.4812825	-0.8961988	-2.8535233
H	2.2939742	0.3722444	-3.2847417
