31
-0.00618971 (energy)
C	-0.4239617	-0.1206654	-0.2174495
O	-0.6244570	0.3560204	0.9037010
O	0.8470384	-0.2704528	-0.7339447
H	1.5155130	0.0787222	-0.1050210
C	-1.0133502	2.0825066	-3.7654501
H	-0.4029152	1.5831211	-4.5076001
H	-1.2000463	3.1379447	-3.9187745
C	-1.5348260	1.4480549	-2.6911165
C	-2.3528194	2.1906209	-1.6540902
H	-1.9055922	2.1462668	-0.6541739
H	-2.4409007	3.2427401	-1.9332940
H	-3.3645341	1.7715456	-1.5770224
C	-1.3725327	-2.2120408	-3.0528414
C	-0.8720813	-0.8360139	-3.5203936
N	-1.4163666	0.0646273	-2.4979640
C	-1.5006377	-0.5947626	-1.1861539
C	-1.3377428	-2.1174320	-1.5079395
H	-2.3987777	-2.3683056	-3.4030720
H	-0.7563968	-3.0348274	-3.4275348
H	-1.2645587	-0.5516209	-4.5018019
H	0.2278223	-0.7958902	-3.5647779
H	-2.4554468	-0.3812524	-0.6972985
H	-0.3769639	-2.4771301	-1.1292007
H	-2.1275154	-2.7054147	-1.0329389
C	3.4843105	-0.4047899	2.2495685
H	3.2742178	-1.4912201	2.2389235
O	2.6174203	0.3976491	1.8854185
C	4.8561798	-0.0166384	2.7253745
H	5.6218455	-0.4852470	2.0927538
H	4.9756195	1.0686366	2.7032600
H	5.0199294	-0.3852790	3.7466989
