31
-0.00347083 (energy)
C	1.7727721	0.8394392	-1.2850769
O	2.9737997	1.1082408	-1.3834872
O	0.8678086	1.1509565	-2.2793821
H	1.3158746	1.6237160	-3.0142711
C	-0.8801588	3.1079687	1.0824927
H	-1.8615966	2.9062871	0.6715088
H	-0.7461196	4.0616570	1.5772911
C	0.1473221	2.2324788	1.0021232
C	1.5171028	2.5675026	1.5565605
H	2.2966915	2.5604076	0.7858444
H	1.5030380	3.5622437	2.0070715
H	1.8161869	1.8467439	2.3286912
C	-0.9956973	-1.1326395	0.0414102
C	-1.3003215	0.3721272	0.1148121
N	0.0035919	0.9436685	0.4696552
C	1.1104303	0.1566547	-0.0944904
C	0.4463600	-1.1953392	-0.5184315
H	-1.0341727	-1.5648786	1.0473665
H	-1.7048837	-1.6764801	-0.5896909
H	-2.0300986	0.6209642	0.8917198
H	-1.6748547	0.7594574	-0.8459521
H	1.9047147	0.0073044	0.6424177
H	0.4249033	-1.2735556	-1.6090019
H	1.0107546	-2.0478855	-0.1315032
C	1.6410255	-1.6083338	3.3743941
H	1.1672871	-2.4191455	2.7889547
O	2.2628542	-0.7092223	2.7973848
C	1.4652675	-1.6996117	4.8643120
H	1.8781877	-2.6469683	5.2358753
H	1.9624117	-0.8630359	5.3598577
H	0.3971954	-1.6978060	5.1193258
