31
-0.0032293 (energy)
C	0.0236641	0.1206654	-0.4758864
O	1.0948566	-0.3560203	-0.0889450
O	-1.0591340	0.2704527	0.3665843
H	-0.8487075	-0.0787222	1.2599622
C	-2.7543001	-2.0825068	-2.7603122
H	-3.7022383	-1.5831213	-2.6027351
H	-2.7937347	-3.1379449	-2.9986579
C	-1.5631620	-1.4480550	-2.6747566
C	-0.2560742	-2.1906209	-2.8646465
H	0.3862651	-2.1462668	-1.9773781
H	-0.4538310	-3.2427402	-3.0805290
H	0.3165260	-1.7715457	-3.7022831
C	-1.9575718	2.2120406	-2.7150691
C	-2.6127095	0.8360137	-2.5154416
N	-1.4551167	-0.0646274	-2.4755916
C	-0.2769205	0.5947625	-1.8926674
C	-0.6370424	2.1174319	-1.9124891
H	-1.7477578	2.3683054	-3.7789387
H	-2.5901338	3.0348273	-2.3688265
H	-3.2663952	0.5516207	-3.3460412
H	-3.2010993	0.7958900	-1.5850893
H	0.6238454	0.3812523	-2.4751286
H	-0.7894346	2.4771300	-0.8910608
H	0.1692065	2.7054146	-2.3589519
C	4.2235246	-2.3157264	2.2794655
H	4.0049305	-3.2772213	1.7771438
O	4.8015682	-2.3047009	3.3720569
C	3.7730401	-1.0851406	1.5433944
H	2.6881115	-1.1207154	1.3769271
H	4.0283741	-0.1864893	2.1089092
H	4.2444783	-1.0440928	0.5524986
