31
-0.0027973 (energy)
C	-1.4144818	1.9850273	0.7866265
O	-2.6436816	1.9651083	0.9009829
O	-0.7356263	3.1094247	0.3629160
H	-1.3670989	3.8308294	0.1504447
C	0.5968404	0.2135156	-2.4700564
H	1.5549052	0.7166397	-2.5122607
H	0.2168828	-0.1889630	-3.4006242
C	-0.1135560	0.0743934	-1.3278477
C	-1.4688178	-0.6031656	-1.3168889
H	-2.2694662	0.0619916	-0.9728830
H	-1.7247676	-0.9395677	-2.3238602
H	-1.4658018	-1.4785648	-0.6544711
C	1.9273812	0.8010471	1.6487333
C	1.7581568	0.9266414	0.1262039
N	0.3757891	0.4793549	-0.0781437
C	-0.4773089	0.8174667	1.0710501
C	0.5336325	1.1717374	2.2117045
H	2.1807526	-0.2332377	1.9062537
H	2.7146581	1.4517167	2.0409331
H	2.4375751	0.2751997	-0.4324504
H	1.9137705	1.9616614	-0.2171410
H	-1.1226843	-0.0221346	1.3445222
H	0.4874206	2.2421648	2.4307288
H	0.2938454	0.6301502	3.1305492
C	4.5856516	-1.0430480	-2.8203991
H	5.1567230	-1.9624631	-2.5898863
O	4.0694129	-0.3888910	-1.9073885
C	4.5014465	-0.6829473	-4.2772159
H	4.0342602	-1.5008065	-4.8419195
H	3.9227665	0.2333633	-4.4116821
H	5.5093044	-0.5471624	-4.6914599
