31
-0.00260001 (energy)
C	2.0445019	-0.6229411	1.4113221
O	3.1996543	-0.2639310	1.1640557
O	1.7601459	-1.8658064	1.9395950
H	2.5839036	-2.3900714	2.0439784
C	-0.6356288	-1.8909734	-1.5884525
H	-1.3689574	-2.4952211	-1.0689171
H	-0.4694175	-2.1189112	-2.6337905
C	0.0529028	-0.8916462	-0.9918553
C	1.0988649	-0.0934052	-1.7433308
H	2.0957003	-0.1780941	-1.2950460
H	1.1662656	-0.4463263	-2.7746270
H	0.8405170	0.9733603	-1.7632817
C	-1.4434136	0.0640993	2.2332139
C	-1.3325163	-0.9790255	1.1097821
N	-0.1963090	-0.4822790	0.3255377
C	0.7874770	0.2055940	1.1750893
C	0.0245746	0.4663567	2.5162028
H	-2.0145826	0.9284843	1.8770347
H	-1.9407575	-0.3278412	3.1254181
H	-2.2235611	-1.0170859	0.4752187
H	-1.1505173	-1.9896041	1.5084989
H	1.1273754	1.1362220	0.7118105
H	0.4415534	-0.1603536	3.3094775
H	0.1220524	1.5100844	2.8263971
C	7.2897428	1.2510933	1.2758328
H	7.1070996	1.7423663	2.2504482
O	8.4467120	1.0742487	0.8781388
C	6.0581863	0.8395725	0.5188670
H	5.4251333	1.7153216	0.3230247
H	6.3310118	0.3651343	-0.4261470
H	5.4592619	0.1440777	1.1216852
