31
-0.00256961 (energy)
C	-0.6831996	-2.1086574	-0.7652479
O	-1.4220983	-3.0902551	-0.6431790
O	0.3182233	-2.0581338	-1.7135328
H	0.3562796	-2.9006934	-2.2164955
C	2.5208274	-1.3312489	1.8652466
H	3.1908570	-0.6903418	1.3056916
H	2.9666245	-1.9464450	2.6366817
C	1.1884976	-1.3818978	1.6394354
C	0.2893765	-2.3203552	2.4184218
H	-0.2262878	-3.0415600	1.7736225
H	0.8795585	-2.8844355	3.1437951
H	-0.4821759	-1.7627390	2.9651405
C	0.0411401	1.4501409	-0.4140037
C	1.2188536	0.5925579	0.0759442
N	0.5421892	-0.5330716	0.7300443
C	-0.7409261	-0.8431264	0.0817980
C	-1.0407411	0.4128997	-0.8020075
H	-0.3152867	2.0864034	0.4035468
H	0.3105881	2.0961169	-1.2549017
H	1.8486971	1.1117891	0.8051742
H	1.8581908	0.2633982	-0.7584835
H	-1.5261782	-1.0169158	0.8230154
H	-0.9520887	0.1528696	-1.8605192
H	-2.0559617	0.7801701	-0.6301658
C	0.3304730	3.1099083	3.5833041
H	1.1102815	2.8876476	4.3363524
O	0.5374588	2.8720352	2.3880696
C	-0.9415458	3.6994316	4.1250684
H	-0.7277792	4.6387577	4.6523418
H	-1.6513459	3.8857613	3.3163399
H	-1.3901886	3.0183326	4.8603487
