31
-0.00192829 (energy)
C	4.0447259	0.0277122	1.1954408
O	4.4774655	-0.6949313	2.0981749
O	3.7921336	1.3706522	1.3887131
H	3.9739846	1.6226267	2.3202525
C	0.0000000	-0.0000000	0.0000000
H	-0.1549589	0.9586944	-0.4792663
H	-0.8672710	-0.4637470	0.4528721
C	1.2028685	-0.6162190	0.0451666
C	1.3870137	-1.9401285	0.7588159
H	2.1102125	-1.8786961	1.5804129
H	0.4347471	-2.2728067	1.1773626
H	1.7452184	-2.7136131	0.0670492
C	3.5930521	0.8753515	-2.3245854
C	2.2752343	1.0154135	-1.5459676
N	2.3345470	-0.1163507	-0.6141119
C	3.7187628	-0.4229624	-0.2233715
C	4.5942948	0.3403752	-1.2718762
H	3.4658212	0.1488691	-3.1347054
H	3.9258398	1.8202479	-2.7643804
H	1.3915116	0.9152964	-2.1840045
H	2.2128834	1.9816828	-1.0207972
H	3.9054710	-1.5004423	-0.2434631
H	5.1137250	1.1721959	-0.7879460
H	5.3493431	-0.3195237	-1.7072215
C	0.1039644	1.1308910	-5.0357165
H	0.6782344	0.2090719	-5.2479576
O	-0.0482859	1.5114931	-3.8695373
C	-0.4462129	1.8411923	-6.2406460
H	-1.1106939	1.1716095	-6.8029368
H	-0.9956936	2.7355583	-5.9393864
H	0.3702653	2.1208083	-6.9196096
