31
-0.000997431 (energy)
C	-0.6378871	3.1496818	0.9072740
O	-1.4324806	3.3605715	1.8284432
O	-0.9117762	3.5144296	-0.3952576
H	-1.8066910	3.9138281	-0.4579863
C	-0.1396744	-0.6559575	-0.8415965
H	0.2772190	-0.4593022	-1.8215608
H	-0.7176372	-1.5649289	-0.7318539
C	0.0369887	0.1700059	0.2144496
C	-0.5947848	-0.1210674	1.5605846
H	-1.2844891	0.6682617	1.8816449
H	-1.1572255	-1.0559950	1.5132704
H	0.1706542	-0.2217370	2.3410325
C	2.7284590	2.6076687	-0.3915798
C	1.7353292	1.5940185	-0.9820991
N	0.8616996	1.3023053	0.1600209
C	0.7189419	2.4693386	1.0434210
C	1.8760169	3.4281282	0.6069551
H	3.5274069	2.0749191	0.1357902
H	3.1889400	3.2413742	-1.1553673
H	2.2183505	0.6702267	-1.3158344
H	1.1779256	2.0176001	-1.8325388
H	0.8030183	2.1812951	2.0951761
H	1.4612243	4.3110816	0.1127259
H	2.4521090	3.7669089	1.4720768
C	4.3379897	-1.7230579	0.1072131
H	4.2237242	-1.7377745	1.2078083
O	3.5891815	-1.0236815	-0.5842861
C	5.4359844	-2.5913916	-0.4400365
H	5.2709516	-3.6372817	-0.1486174
H	5.4765527	-2.5156914	-1.5287056
H	6.4023520	-2.2921582	-0.0129460
