31
-0.00087476 (energy)
C	-0.5248033	-1.1820913	4.0145854
O	0.2552820	-1.9456251	4.5915508
O	-1.7503350	-1.6056265	3.5420022
H	-1.8669869	-2.5667686	3.7060897
C	0.0000000	0.0000000	0.0000000
H	-0.9848373	0.3055096	-0.3310027
H	0.6778090	-0.3654631	-0.7611340
C	0.3964858	0.0625250	1.2913359
C	1.7705393	-0.4103878	1.7206044
H	1.7258786	-1.2301705	2.4470849
H	2.3301211	-0.7648070	0.8523169
H	2.3401998	0.4051836	2.1847814
C	-1.8704108	2.1372666	3.3186767
C	-1.6442613	1.3461563	2.0204058
N	-0.3975668	0.6249864	2.3004593
C	-0.2737466	0.2934248	3.7278617
C	-1.3454061	1.1934483	4.4279378
H	-1.2822798	3.0612315	3.2931864
H	-2.9198125	2.4063006	3.4715605
H	-1.5028170	1.9918850	1.1479907
H	-2.4807574	0.6611735	1.8095963
H	0.7353860	0.5003137	4.0953875
H	-2.1595855	0.5724258	4.8118192
H	-0.9109668	1.7367700	5.2712372
C	2.9246570	3.2663601	-1.7987354
H	2.6718906	3.2757122	-2.8760490
O	3.0785641	4.3305912	-1.1890331
C	3.0565740	1.9039485	-1.1778404
H	3.8349405	1.3270975	-1.6949821
H	3.3060185	1.9893217	-0.1180925
H	2.1187100	1.3443914	-1.2923847
