31
-0.000747088 (energy)
C	-3.0990923	-0.7340885	-1.0036345
O	-3.3231723	-1.8416149	-1.5012082
O	-3.1825354	0.4306609	-1.7391894
H	-3.4037631	0.2297408	-2.6746123
C	0.8043536	0.6717909	-0.2445118
H	0.7088191	1.7497797	-0.2043015
H	1.7675112	0.2792723	-0.5454601
C	-0.2079756	-0.1704108	0.0629690
C	-0.0461755	-1.6732975	-0.0423550
H	-0.7468421	-2.1233998	-0.7552971
H	0.9663186	-1.9163425	-0.3716764
H	-0.2149230	-2.1563062	0.9289107
C	-2.9358658	1.5584127	1.8302464
C	-1.6793409	1.6703531	0.9521112
N	-1.4400338	0.2768393	0.5601739
C	-2.6981573	-0.4756956	0.4437328
C	-3.7543198	0.4228222	1.1688461
H	-2.6481018	1.2782699	2.8495456
H	-3.4998090	2.4945531	1.8812920
H	-0.8102085	2.0486234	1.4994690
H	-1.8479242	2.3227312	0.0807041
H	-2.6132598	-1.4616895	0.9093882
H	-4.4541028	0.8380086	0.4381984
H	-4.3308668	-0.1571903	1.8942901
C	3.3705793	1.4665545	-2.7919179
H	3.1616541	2.4105948	-2.2536604
O	3.3802188	0.3929537	-2.1793002
C	3.6287953	1.6067682	-4.2659405
H	4.4867484	2.2704905	-4.4375100
H	3.8245517	0.6304454	-4.7143264
H	2.7645876	2.0723758	-4.7580461
