31
-0.000722661 (energy)
C	0.5248035	0.2622661	-4.1767753
O	-0.2552818	-0.2578872	-4.9800894
O	1.7503351	-0.2973598	-3.8775498
H	1.8669871	-1.1444168	-4.3604715
C	0.0000000	-0.0000000	0.0000000
H	0.9848373	0.1738755	0.4155313
H	-0.6778091	-0.6037461	0.5902363
C	-0.3964857	0.5004170	-1.1920740
C	-1.7705392	0.2028428	-1.7572003
H	-1.7258785	-0.3190301	-2.7202508
H	-2.3301211	-0.4271740	-1.0624954
H	-2.3401997	1.1279871	-1.9144423
C	1.8704110	3.1434277	-2.3875480
C	1.6442614	1.9559924	-1.4381479
N	0.3975669	1.3740983	-1.9479669
C	0.2737468	1.5507326	-3.4026871
C	1.3454063	2.6359180	-3.7527173
H	1.2822800	4.0029525	-2.0475805
H	2.9198127	3.4485262	-2.4391967
H	1.5028171	2.2643955	-0.3974938
H	2.4807575	1.2402180	-1.4743296
H	-0.7353857	1.8708457	-3.6772883
H	2.1595858	2.1836429	-4.3258500
H	0.9109670	3.4348987	-4.3593328
C	2.4675468	2.1856216	2.6150602
H	3.4249953	2.3907510	3.1306154
O	2.2714117	1.0853624	2.0868813
C	1.4770713	3.3161207	2.6178657
H	1.9149203	4.2029110	2.1404371
H	0.5657759	3.0272658	2.0899639
H	1.2315571	3.6004521	3.6497047
