31
-0.00150263 (energy)
C	1.4974429	1.9974831	2.0634389
O	2.2505539	2.9306674	2.3574316
O	1.5855114	0.7662094	2.6808775
H	2.3214975	0.7639088	3.3316673
N	0.4975238	0.9918044	0.0056175
C	-1.2158178	0.2889279	1.5225376
C	-0.3941414	-0.1451379	0.2874852
C	1.6099591	-0.1437901	-1.8100228
H	1.0546340	-1.0631687	-1.6763178
H	2.3237837	-0.1209167	-2.6234838
C	1.4401410	0.9471230	-1.0265493
C	2.2377750	2.2129799	-1.2608560
H	2.7982085	2.5258411	-0.3719156
H	2.9526356	2.0560617	-2.0710436
H	1.5858163	3.0498671	-1.5446537
C	0.3958354	2.0530357	1.0082987
C	-1.0125418	1.8192187	1.6127047
H	-2.2730948	0.0246631	1.4258045
H	-0.8250683	-0.1939869	2.4216249
H	-1.0238099	-0.3413704	-0.5920864
H	0.1837428	-1.0572482	0.4899152
H	0.4776078	3.0436358	0.5551622
H	-1.1032859	2.2021534	2.6334905
H	-1.7421188	2.3465568	0.9881910
C	4.0108893	3.6844784	-4.8439292
H	4.4906391	3.4234921	-5.8063787
O	4.0731351	2.9027722	-3.8883806
C	3.3109058	5.0141346	-4.8105299
H	2.5271930	5.0476632	-5.5791110
H	2.8686385	5.1887435	-3.8274286
H	4.0193016	5.8197581	-5.0449645
