31
-0.00136596 (energy)
C	-2.9784444	-1.4093564	-0.3967671
O	-2.7974771	-2.6305982	-0.4128954
O	-3.5905832	-0.7483530	-1.4424163
H	-3.8156665	-1.3810092	-2.1595577
N	-1.7340133	0.6464628	0.2894220
C	-3.9353724	1.5450837	0.5671266
C	-2.5040870	1.8857210	0.0935152
C	0.2800549	1.5762705	-0.6606432
H	-0.1819807	2.5238351	-0.9059276
H	1.3319965	1.4733865	-0.8943552
C	-0.3885805	0.5520462	-0.0804264
C	0.3071925	-0.7519644	0.2496796
H	-0.1809429	-1.6168300	-0.2149863
H	1.3404445	-0.7201079	-0.1016439
H	0.3253894	-0.9326926	1.3327205
C	-2.5656796	-0.4722486	0.7352223
C	-3.7800886	0.2409155	1.3833824
H	-4.3719417	2.3496948	1.1663228
H	-4.5844224	1.3718919	-0.2948413
H	-2.0461775	2.6958345	0.6788962
H	-2.4925454	2.1932283	-0.9610839
H	-2.0396539	-1.1021097	1.4562492
H	-4.6840051	-0.3753562	1.3787738
H	-3.5274401	0.4618803	2.4263247
C	3.5045725	1.1024378	1.5866341
H	3.2778791	2.0545804	1.0702839
O	3.1609651	0.0271810	1.0828791
C	4.2339710	1.2342640	2.8941805
H	3.6486099	1.8466898	3.5929895
H	4.4153697	0.2502395	3.3316356
H	5.1899997	1.7527733	2.7426203
