31
-0.0010593 (energy)
C	1.0406014	1.9556448	1.1569177
O	0.7713613	3.1390951	1.3836247
O	2.3114519	1.5514621	0.8011129
H	2.9110442	2.3274596	0.7417396
N	0.0000000	0.0000000	0.0000000
C	1.3297700	-1.2603440	1.5407355
C	0.8107092	-1.2258178	0.0852963
C	-0.4560279	-0.2918158	-2.3517056
H	0.1541255	-1.1816744	-2.4376389
H	-0.9713307	0.0326100	-3.2466907
C	-0.6006398	0.4009853	-1.1976371
C	-1.4733016	1.6367943	-1.1287098
H	-0.9257856	2.5171667	-0.7718435
H	-1.8698134	1.8663458	-2.1197382
H	-2.3250030	1.4878525	-0.4516628
C	0.0488427	0.7973906	1.2262562
C	0.4390457	-0.2500971	2.3005069
H	1.2682887	-2.2627262	1.9748759
H	2.3734645	-0.9381437	1.5744826
H	0.1843618	-2.0950016	-0.1613703
H	1.6389550	-1.2004075	-0.6359779
H	-0.9178924	1.2558201	1.4466502
H	0.9414187	0.1966504	3.1635917
H	-0.4792151	-0.7306679	2.6558014
C	2.8205052	-0.7173089	-5.4771619
H	2.5787535	-1.7807358	-5.6649443
O	2.9046384	0.0752933	-6.4219981
C	3.0266940	-0.3464540	-4.0352774
H	3.8432383	-0.9418127	-3.6053353
H	3.2596851	0.7164983	-3.9434925
H	2.1249496	-0.5782989	-3.4531105
