31
-0.00276243 (energy)
C	-0.0301486	-0.4431897	0.2132521
O	1.1474386	-0.1072914	0.0554500
O	-1.0783601	0.3639127	-0.1802705
H	-0.7373496	1.2042194	-0.5581655
N	-1.4285934	-1.5571160	1.9594986
C	-2.7770878	-2.1782754	0.0816421
C	-2.8349303	-1.7262695	1.5585526
C	-2.0017752	-0.7615887	4.1645464
H	-3.0681136	-0.7915341	3.9813914
H	-1.6867041	-0.4501340	5.1522274
C	-1.0785426	-1.0997147	3.2339163
C	0.4029550	-1.0479143	3.5437471
H	0.9549889	-0.4073554	2.8458031
H	0.5574344	-0.6581669	4.5518572
H	0.8568388	-2.0467475	3.4958593
C	-0.4960047	-1.7507119	0.8483188
C	-1.3131875	-2.6265038	-0.1359090
H	-3.4846262	-2.9858859	-0.1285547
H	-3.0131263	-1.3388303	-0.5770442
H	-3.3128447	-2.4712006	2.2107116
H	-3.3911806	-0.7853999	1.6691107
H	0.4160475	-2.2571604	1.1723230
H	-0.9831930	-2.5168613	-1.1731936
H	-1.1801049	-3.6753060	0.1516468
C	2.0328821	1.8612235	-3.5927416
H	1.8061887	2.9225105	-3.3762632
O	1.6892747	1.3613366	-4.6698021
C	2.7622808	1.1217335	-2.5063668
H	2.1769197	1.1416930	-1.5773883
H	2.9436795	0.0867363	-2.8037756
H	3.7183095	1.6163558	-2.2891774
