31
-0.00769529 (energy)
C	-0.4361924	0.1410438	-0.1806802
O	-0.3090004	-1.0856983	-0.2387034
O	0.5536174	0.9539386	0.3336157
H	1.3114208	0.4117376	0.6450003
N	-2.2158748	1.8017902	0.3854546
C	-0.9582515	3.2241327	-1.0726081
C	-1.7762684	3.1990445	0.2385511
C	-3.2762588	2.2071583	2.5149849
H	-2.9718738	3.2450677	2.5551569
H	-3.8789256	1.8450650	3.3380698
C	-2.9485443	1.3758727	1.4979659
C	-3.4067514	-0.0675316	1.4859761
H	-2.5705896	-0.7720685	1.4044631
H	-3.9473826	-0.2925006	2.4074748
H	-4.0817242	-0.2659955	0.6427707
C	-1.6620864	0.9228182	-0.6453938
C	-1.3320718	1.9090527	-1.7951483
H	-1.1880502	4.1024672	-1.6831398
H	0.1110408	3.2363475	-0.8474089
H	-2.6568303	3.8561661	0.2006323
H	-1.1674910	3.5120849	1.0977769
H	-2.3854866	0.1675872	-0.9610297
H	-0.5374343	1.5422664	-2.4515752
H	-2.2360304	2.0403582	-2.4001303
C	4.0390700	0.6156021	-0.7693853
H	3.6494458	0.3794568	-1.7778550
O	3.5438903	0.0784377	0.2277424
C	5.1716876	1.6028397	-0.7291685
H	4.8606349	2.5530395	-1.1834960
H	5.4917651	1.7756943	0.3005151
H	6.0182241	1.2306080	-1.3213111
