31
-0.0074965 (energy)
C	-0.3731107	0.3179176	-0.0501930
O	-0.6702316	-0.7890491	-0.5093060
O	0.8613535	0.5662346	0.5150137
H	1.4093229	-0.2491637	0.5070543
N	-1.4524622	2.1214642	1.3018707
C	0.1218003	3.5242765	0.1685408
C	-0.5774632	3.2839527	1.5258155
C	-2.1858843	2.0479641	3.5997669
H	-1.5478772	2.8656336	3.9094176
H	-2.8252837	1.6158641	4.3588753
C	-2.2183324	1.5695638	2.3337335
C	-3.1357916	0.4273774	1.9500770
H	-2.5922027	-0.4174845	1.5108704
H	-3.6648648	0.0641525	2.8333674
H	-3.8869849	0.7470564	1.2155802
C	-1.2893535	1.5385988	-0.0306402
C	-0.7153390	2.7205467	-0.8534462
H	0.1654442	4.5868816	-0.0883511
H	1.1440954	3.1393388	0.1999350
H	-1.1858384	4.1417801	1.8462022
H	0.1510704	3.0800296	2.3223878
H	-2.2422534	1.1928447	-0.4377567
H	-0.1311524	2.3898401	-1.7172960
H	-1.5564859	3.3173335	-1.2231797
C	3.4105001	0.1332632	-1.9527939
H	4.4519080	0.3713737	-2.2415079
O	3.1851459	-0.5135865	-0.9238074
C	2.3484159	0.6457684	-2.8846703
H	2.5026821	0.2391644	-3.8930958
H	1.3562036	0.3664000	-2.5240530
H	2.4160742	1.7384643	-2.9698247
