31
-0.00425338 (energy)
C	1.6428862	-0.7882492	-2.6776188
O	2.0935215	-0.5762623	-3.8074109
O	0.9427553	-1.9386036	-2.3750908
H	0.8548370	-2.5033544	-3.1741747
N	0.4975240	0.4910372	-0.8617366
C	1.4838828	-1.1740924	0.5471853
C	0.2127020	-0.3215384	0.3323117
C	-1.6965848	1.4956308	-0.8794970
H	-2.0505603	0.9201496	-0.0338950
H	-2.3885810	2.2115454	-1.3042265
C	-0.4542370	1.3625792	-1.4006777
C	-0.0051190	2.1984232	-2.5810045
H	0.3342327	1.5850087	-3.4240621
H	-0.8310594	2.8216072	-2.9295975
H	0.8256378	2.8626427	-2.3078251
C	1.7784652	0.1533054	-1.4838687
C	2.5690065	-0.4870341	-0.3140339
H	1.7724360	-1.2224514	1.6014274
H	1.3156381	-2.1941823	0.1931228
H	-0.0005037	0.3420767	1.1824847
H	-0.6726681	-0.9529031	0.1761972
H	2.2843153	1.0410331	-1.8703439
H	3.3435928	-1.1795933	-0.6564592
H	3.0588763	0.3174797	0.2455826
C	5.2956448	0.4047899	-2.7275690
H	5.1998173	1.4912201	-2.5403007
O	5.1775628	-0.3976492	-1.7947452
C	5.5695195	0.0166387	-4.1535456
H	6.5002179	0.4852472	-4.5003211
H	5.6483910	-1.0686363	-4.2459263
H	4.7669015	0.3852794	-4.8060192
