31
-0.00413983 (energy)
C	2.9222239	-1.2723253	-0.5760639
O	4.1131040	-1.4793553	-0.3243017
O	2.5027156	-0.8447982	-1.8195489
H	3.2743928	-0.7209476	-2.4148501
N	0.9350390	-0.2498884	0.5426743
C	-0.2811988	-1.7365915	-0.8859966
C	-0.2903278	-0.3189515	-0.2702589
C	0.5715265	2.0555430	1.1562556
H	-0.3226961	2.1543071	0.5544819
H	0.8696396	2.9236232	1.7301483
C	1.3005208	0.9166795	1.2219639
C	2.5409043	0.8280947	2.0863220
H	3.4300818	0.5366288	1.5148379
H	2.7407784	1.7969576	2.5482829
H	2.4161345	0.0910123	2.8907557
C	1.7701527	-1.4444602	0.4103677
C	0.7553664	-2.5224111	-0.0497782
H	-1.2693178	-2.2051273	-0.8524862
H	0.0382694	-1.6900085	-1.9300369
H	-1.1646076	-0.1423273	0.3724499
H	-0.2903279	0.4567832	-1.0481464
H	2.2385964	-1.7148136	1.3594606
H	1.2270950	-3.3353442	-0.6096792
H	0.2893167	-2.9535072	0.8431604
C	3.0494851	-0.1309987	-5.5975113
H	4.0665395	0.3000013	-5.6640116
O	2.4757711	-0.1997283	-4.5047439
C	2.4609304	-0.6016974	-6.8979436
H	3.1053774	-1.3683260	-7.3485159
H	1.4605980	-1.0100228	-6.7392547
H	2.4108763	0.2303087	-7.6128378
