31
-0.00410321 (energy)
C	1.1369722	1.3779501	0.9930898
O	2.2942065	1.4712379	1.4132648
O	0.3224244	2.4825117	0.8465394
H	0.7925005	3.2932985	1.1412620
N	-0.8268924	-0.1420234	1.2737548
C	-1.3921092	0.6456040	-0.9150335
C	-1.9866032	0.2479850	0.4551474
C	-2.1645934	-0.5273216	3.2449824
H	-3.0872167	-0.2150097	2.7730211
H	-2.2335542	-0.8653419	4.2710303
C	-0.9674485	-0.5200102	2.6128821
C	0.2940013	-0.9748335	3.3167242
H	1.0755976	-0.2058822	3.3146869
H	0.0695863	-1.2234205	4.3559042
H	0.7174477	-1.8692507	2.8406124
C	0.4482007	0.0769117	0.5895569
C	0.0407677	0.0642032	-0.9062172
H	-1.9838175	0.2549132	-1.7482621
H	-1.3536688	1.7339818	-1.0056209
H	-2.6840396	-0.5988808	0.3841781
H	-2.5292614	1.0848750	0.9155934
H	1.1668561	-0.7141674	0.8154690
H	0.7337178	0.6279232	-1.5378161
H	0.0411156	-0.9762045	-1.2496373
C	5.3509317	4.3700554	2.1185655
H	5.5598569	3.9928640	3.1377121
O	5.3412922	5.5862645	1.8977606
C	5.0927156	3.3151620	1.0795264
H	4.2347625	2.6964385	1.3747290
H	4.8969593	3.7748518	0.1084746
H	5.9569234	2.6421665	1.0018385
