31
-0.00398589 (energy)
C	1.1456119	-2.9803233	-0.9055865
O	1.0411606	-3.0459902	-2.1340890
O	0.5461226	-3.9024969	-0.0717818
H	0.0376016	-4.5574462	-0.5987125
N	1.1176536	-1.2241157	0.8722801
C	2.4588326	-2.8087987	2.0641861
C	1.3330304	-1.7621575	2.2255273
C	-0.7121611	0.1872633	1.5675675
H	-0.6935656	-0.1630284	2.5915157
H	-1.4405325	0.9514848	1.3283435
C	0.1246390	-0.2751484	0.6090785
C	0.0626325	0.2543607	-0.8084153
H	-0.0957123	-0.5409403	-1.5463898
H	-0.7582486	0.9681275	-0.9019237
H	0.9914749	0.7717908	-1.0831686
C	1.9195611	-1.9081661	-0.1430726
C	3.0880887	-2.5009010	0.6856082
H	3.1960365	-2.7463690	2.8702016
H	2.0368716	-3.8168638	2.0660717
H	1.6110305	-0.9427022	2.9036459
H	0.4139500	-2.2182046	2.6181919
H	2.2809758	-1.2138731	-0.9050731
H	3.5360559	-3.3811067	0.2150336
H	3.8649791	-1.7335060	0.7746693
C	3.0031078	0.5118149	-3.2447413
H	2.5042543	-0.4593002	-3.0640109
O	3.2771174	1.2540068	-2.2949613
C	3.3011570	0.8271478	-4.6837722
H	2.3724814	0.8295670	-5.2699485
H	3.7912643	1.7993573	-4.7685089
H	3.9459748	0.0498800	-5.1149080
