31
-0.0027991 (energy)
C	1.5487669	0.1333379	1.3271103
O	2.7821656	0.0870558	1.2950743
O	0.8654510	0.6427660	2.4127364
H	1.4967442	0.9177522	3.1134930
N	-0.3842614	-1.3113888	0.6774773
C	-1.5267195	0.7844219	0.4958515
C	-1.6915061	-0.6870565	0.9391531
C	-1.0528201	-3.4385622	1.6004073
H	-2.0349544	-3.0895625	1.8921805
H	-0.8273975	-4.4784223	1.7995631
C	-0.1301698	-2.6472323	1.0043591
C	1.2282116	-3.1872553	0.6085197
H	2.0519673	-2.6190634	1.0565906
H	1.3222373	-4.2262836	0.9304393
H	1.3684747	-3.1582478	-0.4802669
C	0.6196478	-0.3510846	0.2171471
C	-0.2454331	0.7937118	-0.3698620
H	-2.3962401	1.1450568	-0.0617365
H	-1.3923956	1.4266431	1.3697845
H	-2.4687555	-1.2161703	0.3694533
H	-1.9555559	-0.7588024	2.0031096
H	1.2750310	-0.7865351	-0.5405888
H	0.2686777	1.7593617	-0.3605085
H	-0.4771839	0.5446911	-1.4113349
C	3.9168383	-2.3535833	-2.1181409
H	4.9105850	-2.2475630	-1.6429461
O	3.0053715	-1.5698340	-1.8300829
C	3.7869899	-3.4852522	-3.0987238
H	4.0098591	-4.4403888	-2.6046689
H	2.7786593	-3.5148380	-3.5170190
H	4.5193365	-3.3689751	-3.9086383
