31
-0.00279144 (energy)
C	-1.5805818	0.1687587	1.2848974
O	-2.2017920	-0.5590979	2.0651304
O	-1.6755598	1.5446932	1.3378613
H	-2.3030215	1.8154136	2.0437017
N	-0.9873285	0.2156581	-1.1423866
C	0.8710694	1.5143839	-0.3740834
C	-0.1597581	1.3740315	-1.5171562
C	-2.4494680	0.4606781	-3.0465269
H	-1.9576894	1.3556107	-3.4053714
H	-3.2731613	0.0868971	-3.6411735
C	-2.0748566	-0.1922864	-1.9213318
C	-2.7920568	-1.4461626	-1.4664341
H	-3.1848956	-1.3577281	-0.4466106
H	-3.6310319	-1.6558084	-2.1329341
H	-2.1237245	-2.3173973	-1.4823536
C	-0.6493207	-0.3180485	0.1777762
C	0.8099240	0.1652410	0.3791203
H	1.8764962	1.7237089	-0.7513473
H	0.5816336	2.3292975	0.2940428
H	0.3122715	1.1847314	-2.4918302
H	-0.7735155	2.2795843	-1.6178991
H	-0.7167222	-1.4081231	0.2001910
H	1.0842119	0.2531344	1.4345435
H	1.4781046	-0.5696748	-0.0832852
C	3.0181546	-0.5098009	-3.0892164
H	3.2270798	-1.5810034	-2.9063004
O	3.0085150	0.2895264	-2.1463510
C	2.7599386	-0.1374135	-4.5223005
H	1.9019855	-0.7024283	-4.9105294
H	2.5641823	0.9333869	-4.6097236
H	3.6241464	-0.4066316	-5.1439756
