31
-0.00266621 (energy)
C	2.4596076	-2.0614272	0.4369241
O	3.2694779	-2.9183596	0.0705667
O	1.6982291	-2.2170406	1.5775857
H	1.8889157	-3.0842070	1.9981440
N	0.7622509	-0.5446196	-0.5946433
C	1.2072453	0.8023029	1.3336722
C	0.0862172	0.3233354	0.3835114
C	-1.2934626	-1.1256383	-1.7171836
H	-1.9153036	-0.5622629	-1.0334864
H	-1.7984602	-1.6274538	-2.5326259
C	0.0522168	-1.2125990	-1.5974130
C	0.8779452	-2.0084766	-2.5864858
H	1.4851742	-2.7808725	-2.0998026
H	0.2210410	-2.5010522	-3.3061378
H	1.5651684	-1.3605125	-3.1466985
C	2.1787236	-0.7475456	-0.2874827
C	2.5214824	0.4901185	0.5809684
H	1.1178247	1.8667103	1.5704609
H	1.1702436	0.2408421	2.2704980
H	-0.4049069	1.1535223	-0.1439568
H	-0.6923642	-0.2289848	0.9272269
H	2.7862496	-0.7806614	-1.1947443
H	3.3664717	0.3138702	1.2531342
H	2.7904093	1.3126992	-0.0909132
C	4.2695644	1.7108340	-2.8475636
H	3.3121160	1.3669146	-3.2829886
O	4.4656995	1.6181209	-1.6306218
C	5.2600400	2.2736539	-3.8280074
H	4.8221909	3.1305142	-4.3572762
H	6.1713353	2.5864030	-3.3139008
H	5.5055543	1.5222207	-4.5901650
