31
-0.00265081 (energy)
C	-0.0318148	-0.2796494	-2.0244663
O	0.5803739	0.1392381	-3.0114815
O	-0.8101088	-1.4182786	-2.0774167
H	-0.8062772	-1.7909388	-2.9864370
N	-1.3715899	0.6538717	-0.1325367
C	-0.6556502	-1.3376492	0.9863450
C	-1.8512644	-0.3751619	0.8045632
C	-3.5022883	1.7843438	-0.2086573
H	-3.9926440	1.0658332	0.4354032
H	-4.1005590	2.6197528	-0.5491736
C	-2.2050265	1.6829532	-0.5822773
C	-1.5638452	2.7206383	-1.4798349
H	-1.1329282	2.2812179	-2.3872506
H	-2.3087945	3.4583677	-1.7845622
H	-0.7552498	3.2531338	-0.9615749
C	-0.0296729	0.3721426	-0.6442096
C	0.5644909	-0.5563420	0.4459230
H	-0.5197440	-1.6306924	2.0316598
H	-0.8107621	-2.2441473	0.3960472
H	-2.1564842	0.1031409	1.7462123
H	-2.7290717	-0.8971146	0.3997264
H	0.5583089	1.2860147	-0.7556687
H	1.3528898	-1.2097546	0.0607523
H	1.0009207	0.0742826	1.2283725
C	2.9576091	2.6856776	1.2711849
H	3.2103755	3.0453522	0.2556427
O	2.8037020	1.4770970	1.4801294
C	2.8256922	3.7535673	2.3206074
H	2.0473257	4.4725027	2.0319477
H	2.5762477	3.3108877	3.2872454
H	3.7635562	4.3185554	2.4043507
