31
-0.00159514 (energy)
C	0.1249758	0.2724910	0.3910655
O	1.1163552	-0.2724510	-0.1035513
O	-1.1405633	0.0981132	-0.1314524
H	-1.1038660	-0.4776358	-0.9266722
N	-0.4867187	2.4925949	1.3620572
C	-2.1093327	1.2048295	2.5618094
C	-1.8761042	2.5540303	1.8447450
C	-0.6224988	4.6342623	0.2582178
H	-1.6659328	4.7812598	0.5055177
H	-0.1361259	5.4304713	-0.2906722
C	0.0755643	3.5289077	0.6098700
C	1.5375050	3.3755627	0.2455513
H	1.7325595	2.4629070	-0.3299453
H	1.8611112	4.2276730	-0.3554811
H	2.1710593	3.3357922	1.1416532
C	0.1410573	1.1936406	1.6080991
C	-0.6921740	0.6284693	2.7870013
H	-2.6517232	1.3289348	3.5038488
H	-2.6882628	0.5348307	1.9213474
H	-1.9905592	3.4160944	2.5173381
H	-2.5766887	2.6914518	1.0097781
H	1.1943368	1.3005529	1.8773203
H	-0.6779564	-0.4646582	2.8288001
H	-0.2612016	1.0076458	3.7202073
C	5.2131921	1.9879002	-1.8411598
H	4.7564603	2.2066746	-2.8250890
O	6.1888084	2.6396908	-1.4521172
C	4.5665295	0.8777102	-1.0611702
H	4.5909871	-0.0548379	-1.6406552
H	5.0791145	0.7311951	-0.1080875
H	3.5088232	1.1102464	-0.8795175
