31
-0.0101182 (energy)
C	2.3515469	0.2665451	-0.8038263
O	2.1782281	1.0489809	-1.7296267
O	3.5991633	0.1805487	-0.2011091
H	3.6229538	-0.4566361	0.5414681
N	0.0000000	0.0000000	0.0000000
C	-1.2170730	1.9117004	0.8392948
H	-1.9810713	1.8569396	0.0742554
H	-1.3300126	2.6889283	1.5842213
C	-0.1538627	1.0782086	0.8822860
C	0.9138303	1.2208241	1.9468188
H	1.9001966	1.4498601	1.5244139
H	0.6554778	2.0361917	2.6254192
H	1.0091328	0.3028883	2.5425290
C	-0.6294586	-1.8235678	-1.3388066
C	-1.0565935	-0.4041569	-0.9382267
C	1.2690103	-0.6842337	-0.2632348
C	0.9116541	-1.7361873	-1.3639827
H	-0.9640836	-2.5414181	-0.5813026
H	-1.0382683	-2.1322808	-2.3053591
H	-2.0260694	-0.3793928	-0.4297619
H	-1.1096201	0.2675060	-1.8090779
H	1.6380436	-1.1812585	0.6473978
H	1.2463887	-1.3620622	-2.3367700
H	1.4012176	-2.6964923	-1.1797754
C	6.1847516	-0.5218722	2.6173587
H	6.0704862	0.5594469	2.8229682
O	5.4359435	-1.0814204	1.8085297
C	7.2827463	-1.2115926	3.3774716
H	7.1177135	-1.1062178	4.4580766
H	7.3233146	-2.2705771	3.1138759
H	8.2491139	-0.7390292	3.1569477
