31
-0.00788775 (energy)
C	1.2976098	2.3043275	-0.5378804
O	2.0649692	2.3439032	0.4155057
O	1.1365536	3.4276322	-1.3375412
H	0.5199766	3.2817864	-2.0835661
N	1.2271276	-0.1597293	-0.9506909
C	3.2455845	-1.3454083	-1.5509226
H	3.2262484	-1.9775244	-0.6722686
H	4.0491784	-1.5170609	-2.2555687
C	2.3375564	-0.3706456	-1.7796050
C	2.4303345	0.5185847	-3.0019793
H	2.5744281	1.5749721	-2.7429722
H	3.2808372	0.2175422	-3.6168674
H	1.5245762	0.4451945	-3.6190492
C	-0.5812056	-0.7031043	0.4452659
C	0.8762677	-1.0786410	0.1413258
C	0.4443329	1.0785443	-0.9086619
C	-0.6082741	0.8238759	0.2196635
H	-1.2513951	-1.2102002	-0.2581508
H	-0.8853973	-0.9727742	1.4608438
H	0.9863083	-2.1127558	-0.2015016
H	1.5258471	-0.9381513	1.0191834
H	-0.0533272	1.2559816	-1.8747476
H	-0.2866657	1.3393896	1.1302379
H	-1.5966026	1.2016551	-0.0565255
C	0.0621728	4.2779933	-4.4685710
H	0.1091385	4.9784419	-3.6131478
O	0.5713244	3.1551746	-4.3788214
C	-0.6446274	4.7959670	-5.6897241
H	-0.1545741	5.7102378	-6.0502842
H	-0.6435895	4.0426745	-6.4803733
H	-1.6788703	5.0680202	-5.4404413
