19
-0.00464604 (energy)
C	0.0825673	-0.0020413	-0.0167375
H	-0.9831151	0.0243050	0.1992908
C	0.4982531	-0.1495761	-1.3390447
H	-0.2366389	-0.2363097	-2.1346200
C	1.8556328	-0.1837085	-1.6353172
H	2.1875062	-0.2970069	-2.6634890
C	2.7939753	-0.0700348	-0.6081536
H	3.8508330	-0.0962233	-0.8598186
C	2.3941807	0.0752023	0.7265920
N	3.3619477	0.2014266	1.7101860
H	3.1071211	0.2841637	2.6829325
H	4.3420582	0.1489501	1.4721757
C	0.5258804	0.2713538	2.4360200
H	-0.5683453	0.2781469	2.4823552
H	0.8793729	1.2174359	2.8584143
H	0.8762281	-0.5600923	3.0561928
C	1.0201872	0.1127758	1.0247232
Br	6.8482613	-0.0589308	-0.9738131
H	6.9474337	1.3884328	-0.9534566
