19
-0.00356047 (energy)
C	2.7160237	0.7561483	1.4853924
H	3.1671547	0.9011015	2.4644280
C	3.5041682	0.9279507	0.3485680
H	4.5507957	1.2023011	0.4477221
C	2.9462878	0.7454816	-0.9111529
H	3.5543253	0.8761561	-1.8018427
C	1.6013545	0.3914471	-1.0306830
H	1.1837801	0.2505835	-2.0240401
C	0.7936860	0.2181688	0.1007417
N	-0.5315345	-0.1500575	-0.0670755
H	-1.1451965	-0.2600739	0.7262297
H	-0.9197627	-0.2526728	-0.9937729
C	0.5487179	0.2244732	2.6288073
H	1.1484521	0.4064632	3.5269841
H	0.1631342	-0.7981731	2.6917762
H	-0.2865477	0.9321575	2.6420276
C	1.3603033	0.4000372	1.3751124
Br	5.5602890	-2.4429296	1.5034529
H	4.3126374	-1.8765357	1.0263008
