19
-0.00346518 (energy)
C	-1.7205330	-0.8940494	-0.4338084
H	-1.8050265	-0.5482913	-1.4615990
C	-2.7210658	-1.7141297	0.0852867
H	-3.5679280	-1.9983339	-0.5332449
C	-2.6300318	-2.1675237	1.3958472
H	-3.4050097	-2.8080878	1.8071871
C	-1.5382740	-1.7996038	2.1839927
H	-1.4833195	-2.1662452	3.2055226
C	-0.5255481	-0.9733115	1.6799065
N	0.5474025	-0.6486920	2.4943768
H	1.2810144	-0.0371758	2.1689859
H	0.5782463	-0.9707374	3.4511185
C	0.4385891	0.3675441	-0.2497854
H	0.2048738	0.6260378	-1.2880923
H	1.4078875	-0.1412770	-0.2471513
H	0.5148839	1.3035282	0.3130409
C	-0.6172802	-0.5177343	0.3524326
Br	3.8415826	-1.2914462	1.2442549
H	4.8003962	-0.9763940	0.2018878
