19
-0.00343173 (energy)
C	0.1296016	-0.5924561	1.8920748
H	-0.8129730	-1.1334123	1.9363540
C	0.9333648	-0.5456671	3.0299821
H	0.6160054	-1.0438491	3.9419177
C	2.1421224	0.1391166	2.9925865
H	2.7747383	0.1789489	3.8748134
C	2.5440526	0.7753568	1.8169487
H	3.4937309	1.3035311	1.8063449
C	1.7472920	0.7416840	0.6652048
N	2.1958576	1.3736290	-0.4834453
H	1.6351778	1.3874181	-1.3221740
H	3.0665179	1.8854304	-0.4780570
C	-0.3728910	-0.0321688	-0.4997592
H	-1.2792388	-0.6102340	-0.2902428
H	0.1456095	-0.5219729	-1.3302377
H	-0.6860921	0.9716153	-0.8046907
C	0.5257211	0.0456561	0.7034383
Br	6.0712706	0.7853299	0.3704378
H	5.5023923	-0.2852524	-0.4266456
