19
-0.00331082 (energy)
C	0.2396971	1.9917614	1.4599064
H	0.0844238	3.0596248	1.5962862
C	-0.1671947	1.3991426	0.2656286
H	-0.6310829	2.0011627	-0.5108432
C	0.0242596	0.0363321	0.0719413
H	-0.2888547	-0.4326004	-0.8565927
C	0.6224167	-0.7304100	1.0733344
H	0.7660971	-1.7939433	0.9023898
C	1.0341314	-0.1522090	2.2810803
N	1.6386940	-0.9503274	3.2389288
H	1.9253311	-0.5690642	4.1280268
H	1.7443112	-1.9427697	3.0842600
C	1.2666321	1.9096571	3.7459409
H	1.0401910	2.9810051	3.7244734
H	2.3464302	1.8040367	3.8919749
H	0.7375005	1.4786954	4.6020672
C	0.8426773	1.2276683	2.4745645
Br	-3.0665381	-2.5422432	1.5669024
H	-2.1374646	-1.4991150	1.9590970
