19
-0.00326124 (energy)
C	-0.9708165	0.7832787	-1.5465243
H	-1.7490498	0.0273025	-1.6232975
C	-0.9761402	1.8489932	-2.4450129
H	-1.7483688	1.9156890	-3.2064218
C	0.0088814	2.8258413	-2.3618124
H	0.0107160	3.6601959	-3.0574866
C	0.9968162	2.7343803	-1.3799298
H	1.7570423	3.5092538	-1.3289734
C	1.0196334	1.6685364	-0.4711221
N	2.0101782	1.6292791	0.4969907
H	2.0678708	0.8633643	1.1512567
H	2.7291083	2.3382009	0.5212516
C	-0.0140466	-0.4842235	0.3939190
H	-0.8564679	-1.1515550	0.1829265
H	-0.1224793	-0.1326736	1.4249866
H	0.9037468	-1.0741567	0.3028447
C	0.0203623	0.6822934	-0.5543948
Br	3.8115377	-0.1921386	3.3509715
H	5.1524255	0.3169181	3.1319010
