19
-0.00301981 (energy)
C	-1.2643249	2.0505653	-0.5937672
H	-1.3411116	2.9391344	-1.2163346
C	-0.1817152	1.1917110	-0.7764773
H	0.5683662	1.4135458	-1.5305968
C	-0.0652013	0.0521810	0.0104900
H	0.7763406	-0.6213097	-0.1249030
C	-1.0318615	-0.2254367	0.9784622
H	-0.9221351	-1.1198344	1.5859011
C	-2.1282032	0.6246001	1.1732640
N	-3.0532843	0.3166964	2.1578365
H	-3.8658289	0.8958469	2.3074152
H	-2.9594710	-0.5302220	2.7000058
C	-3.3932179	2.7343531	0.5409308
H	-3.3232031	3.5736632	-0.1591973
H	-3.4016953	3.1499752	1.5536657
H	-4.3415219	2.2226313	0.3472278
C	-2.2432591	1.7791560	0.3783333
Br	3.9294153	1.4948022	1.1584361
H	2.4794391	1.4612471	1.1978581
