19
-0.00301528 (energy)
C	1.0781438	-0.8935149	1.4096044
H	0.5033139	-0.5504358	2.2668725
C	2.1862393	-1.7112112	1.6253700
H	2.4642986	-1.9962409	2.6362954
C	2.9323197	-2.1611726	0.5426324
H	3.7963962	-2.7998652	0.7024987
C	2.5680847	-1.7922133	-0.7533905
H	3.1621777	-2.1561633	-1.5873948
C	1.4597817	-0.9682768	-0.9884833
N	1.1267618	-0.6425285	-2.2934540
H	0.3486482	-0.0326121	-2.4948468
H	1.6992606	-0.9620330	-3.0616865
C	-0.4996084	0.3664393	-0.0771719
H	-0.9640248	0.6223732	0.8811278
H	-1.2550936	-0.1433282	-0.6836574
H	-0.2110691	1.3038562	-0.5636440
C	0.7037087	-0.5161770	0.1079251
Br	5.3929209	-3.5449549	3.1269230
H	5.5830017	-2.1294796	3.3826761
