19
-0.00253872 (energy)
C	0.1752432	2.3559304	1.6122902
H	0.2270299	3.2482704	2.2320392
C	-0.8919010	1.4761526	1.7862203
H	-1.6548623	1.6857487	2.5308602
C	-0.9764802	0.3314673	1.0026618
H	-1.8058063	-0.3583123	1.1312544
C	0.0065681	0.0696354	0.0468722
H	-0.0782054	-0.8291371	-0.5580994
C	1.0877561	0.9408275	-0.1389567
N	2.0300350	0.6478139	-1.1116931
H	2.8324302	1.2426340	-1.2544126
H	1.9594698	-0.2029158	-1.6514140
C	2.3027932	3.0780721	0.4990369
H	2.2079213	3.9185062	1.1948766
H	2.3144911	3.4898556	-0.5152327
H	3.2589158	2.5863141	0.7055897
C	1.1704846	2.1005369	0.6524865
Br	4.5661446	-1.6413785	-1.1663036
H	4.5222807	-0.8584135	0.0544144
