19
-0.00240817 (energy)
C	1.8450760	0.8893351	1.9963405
H	2.5583717	1.2293746	2.7437519
C	2.2143366	0.9144045	0.6524374
H	3.2001647	1.2693867	0.3649313
C	1.3173716	0.4823234	-0.3171923
H	1.5982166	0.4974836	-1.3664825
C	0.0531956	0.0260552	0.0598381
H	-0.6333907	-0.3102347	-0.7124816
C	-0.3359861	-0.0026658	1.4052704
N	-1.5949445	-0.4798906	1.7327504
H	-1.9138287	-0.4918344	2.6899275
H	-2.2375761	-0.7652216	1.0077469
C	0.2193075	0.4216841	3.8471429
H	1.0432416	0.7939382	4.4652711
H	-0.0051031	-0.5978986	4.1765916
H	-0.6470749	1.0651103	4.0316552
C	0.5738497	0.4319105	2.3858285
Br	2.8115273	0.3930879	6.8508631
H	4.0272317	-0.0148008	6.1720402
