19
-0.00238436 (energy)
C	-2.7597001	1.2584090	0.9774444
H	-3.2067351	1.9225973	1.7136882
C	-3.5824575	0.6534226	0.0286983
H	-4.6515205	0.8473914	0.0317803
C	-3.0296675	-0.1970473	-0.9213260
H	-3.6640434	-0.6712082	-1.6648664
C	-1.6551326	-0.4402053	-0.9201250
H	-1.2410213	-1.1060670	-1.6725273
C	-0.8139166	0.1563287	0.0280197
N	0.5466036	-0.1016656	-0.0208304
H	1.1757782	0.2938873	0.6615881
H	0.9206876	-0.7426886	-0.7057902
C	-0.5253317	1.6945003	2.0284977
H	-1.1258538	2.3268037	2.6911353
H	0.2235816	2.3349276	1.5516046
H	-0.0242468	0.9470691	2.6521330
C	-1.3741711	1.0192992	0.9869508
Br	3.7269304	-1.7788929	-0.9128785
H	4.0542701	-0.5623083	-0.1932387
