19
-0.00196367 (energy)
C	-1.5450440	-0.3641034	-1.1949960
H	-1.9571204	-1.2052020	-0.6420153
C	-2.1869338	0.0561626	-2.3587878
H	-3.0833648	-0.4536397	-2.7009020
C	-1.6766159	1.1301438	-3.0782056
H	-2.1719432	1.4645088	-3.9853796
C	-0.5254802	1.7812656	-2.6316626
H	-0.1430789	2.6207003	-3.2061953
C	0.1344874	1.3701366	-1.4663767
N	1.2640889	2.0580113	-1.0531074
H	1.7752578	1.7725114	-0.2313934
H	1.6292609	2.8198112	-1.6065779
C	0.2735624	-0.2020208	0.5236345
H	-0.2629216	-1.0530759	0.9565469
H	0.2903745	0.5936868	1.2753074
H	1.2969993	-0.5300795	0.3147926
C	-0.3847970	0.2851217	-0.7375157
Br	3.6960331	-1.5606343	1.7888049
H	2.8542046	-1.1954006	2.9126553
