19
0.000182706 (energy)
C	0.7181726	1.1125848	0.5605239
H	0.9475814	1.9256459	-0.1245634
C	0.0235276	0.0033736	0.0807568
H	-0.2801390	-0.0401693	-0.9615577
C	-0.2773792	-1.0463938	0.9403296
H	-0.8171964	-1.9148787	0.5736621
C	0.1174270	-0.9841564	2.2777631
H	-0.1246353	-1.8159302	2.9339090
C	0.8129747	0.1242865	2.7778061
N	1.1990264	0.1336084	4.1085352
H	1.6806216	0.9267466	4.5047872
H	0.9469635	-0.6305550	4.7188940
C	1.8678387	2.4001537	2.3792391
H	2.0168815	3.1230205	1.5700588
H	2.8566268	2.1159936	2.7534002
H	1.3074668	2.9053739	3.1725842
C	1.1196457	1.1845895	1.9061052
Br	4.1207043	1.9504191	-0.2130384
H	4.9760989	1.8335728	-1.3791250
