19
-0.00454161 (energy)
C	-2.0032165	1.7104130	-1.7934733
H	-2.7198907	1.6464479	-2.6091496
C	-1.7661239	2.9496485	-1.2009025
H	-2.2926004	3.8320122	-1.5541528
C	-0.8552891	3.0513350	-0.1561720
H	-0.6661006	4.0133095	0.3117238
C	-0.1838857	1.9131051	0.2934098
H	0.5226010	2.0121019	1.1131936
C	-0.4071102	0.6604848	-0.2927544
N	0.2701213	-0.4439858	0.1986363
H	0.1489874	-1.3554977	-0.2166834
H	0.9452453	-0.3398884	0.9425385
C	-1.6196785	-0.7575001	-2.0161703
H	-2.3609822	-0.6508413	-2.8153046
H	-2.0186317	-1.4731242	-1.2901098
H	-0.7072031	-1.1623080	-2.4658145
C	-1.3314919	0.5583849	-1.3478593
Br	3.1981630	-1.0118881	2.7988657
H	4.3436026	-0.4527317	2.1057401
