19
0.000258476 (energy)
C	-1.8885058	-0.3698520	-0.4944725
H	-2.2054305	-0.7881023	0.4582430
C	-2.8157874	-0.2770921	-1.5311026
H	-3.8360801	-0.6193825	-1.3815402
C	-2.4303302	0.2560528	-2.7552763
H	-3.1475235	0.3329876	-3.5675746
C	-1.1182296	0.6952746	-2.9395307
H	-0.8363786	1.1116659	-3.9029348
C	-0.1723230	0.6063183	-1.9100536
N	1.1137019	1.0708758	-2.1343054
H	1.8240559	0.9997880	-1.4213106
H	1.3757725	1.4315035	-3.0405536
C	0.4012089	-0.0490642	0.4758844
H	-0.0730248	-0.4892271	1.3595597
H	0.7758143	0.9393000	0.7609322
H	1.2419010	-0.6932307	0.1984914
C	-0.5645345	0.0694859	-0.6706452
Br	5.0082134	-0.7902187	-3.7809800
H	4.2513652	-0.2361449	-2.6740501
