19
0.000261856 (energy)
C	1.4729101	1.0254557	-0.8524812
H	1.3767935	0.6076268	-1.8520921
C	2.4583644	1.9821195	-0.6142969
H	3.1154506	2.2993973	-1.4193444
C	2.5956752	2.5289986	0.6559358
H	3.3603185	3.2760635	0.8491416
C	1.7467849	2.1177016	1.6848641
H	1.8677968	2.5587195	2.6706778
C	0.7534138	1.1548638	1.4643357
N	-0.0766816	0.7905453	2.5122748
H	-0.7863144	0.0834590	2.3919916
H	0.0591526	1.1845196	3.4322489
C	-0.4357653	-0.4291558	-0.1256014
H	-0.3995097	-0.7462020	-1.1733085
H	-1.4349001	-0.0225940	0.0611672
H	-0.2811440	-1.3191842	0.4929471
C	0.6134410	0.6045157	0.1776047
Br	2.0549771	4.6681432	-3.8155036
H	2.5085852	3.3358040	-4.1679561
