19
0.000289676 (energy)
C	-1.0699103	-0.9103684	-1.4050869
H	-1.1611103	-0.0654055	-2.0838811
C	-1.6617825	-2.1227610	-1.7555849
H	-2.2035389	-2.2135628	-2.6930197
C	-1.5547423	-3.2144096	-0.9021988
H	-2.0120441	-4.1630103	-1.1689299
C	-0.8557651	-3.0907151	0.2997180
H	-0.7806362	-3.9561747	0.9526381
C	-0.2578480	-1.8790373	0.6695931
N	0.4401696	-1.8089309	1.8645070
H	0.8622411	-0.9450199	2.1703358
H	0.4827845	-2.6093751	2.4789109
C	0.2588413	0.5507001	0.1399014
H	0.0755468	1.2933255	-0.6439568
H	1.3432373	0.4450932	0.2465683
H	-0.1640678	0.9432730	1.0703288
C	-0.3642191	-0.7759231	-0.1964186
Br	5.2861535	1.5257327	0.8470546
H	3.8833524	1.7628828	1.1316941
