19
0.000619666 (energy)
C	-0.1056590	2.7791941	-0.6674685
H	-0.1532995	3.8391593	-0.9067289
C	-0.5215778	2.3539714	0.5931880
H	-0.8857663	3.0759646	1.3188750
C	-0.4698721	1.0034679	0.9170535
H	-0.7935454	0.6640750	1.8969319
C	-0.0023622	0.0815087	-0.0209759
H	0.0281257	-0.9705101	0.2497569
C	0.4229896	0.4914976	-1.2911966
N	0.8631564	-0.4621137	-2.1949894
H	1.1977865	-0.1969146	-3.1091612
H	0.9143349	-1.4345635	-1.9271440
C	0.8043338	2.3621397	-2.9664398
H	0.6945436	3.4489206	-3.0462916
H	0.1959559	1.9106257	-3.7566656
H	1.8595886	2.1247812	-3.1360237
C	0.3671778	1.8581397	-1.6188037
Br	-1.6613692	-4.1529049	-4.0616993
H	-0.7414766	-3.6649567	-3.0513454
