19
0.000623216 (energy)
C	0.0101897	0.0832682	0.0080161
H	-0.1213272	-0.9914598	-0.0954464
C	0.1259825	0.8614697	-1.1426584
H	0.0846737	0.3942085	-2.1227041
C	0.2928455	2.2366490	-1.0310319
H	0.3824309	2.8500917	-1.9230949
C	0.3433413	2.8301290	0.2313884
H	0.4716618	3.9071709	0.2983503
C	0.2323065	2.0630908	1.3983499
N	0.2710819	2.6986916	2.6289883
H	0.2171321	2.1723488	3.4880986
H	0.4177856	3.6964133	2.6842020
C	-0.0699944	-0.2067069	2.4973485
H	-0.1950950	-1.2594089	2.2222279
H	-0.9451097	0.0861043	3.0863138
H	0.8296131	-0.1333261	3.1170114
C	0.0602990	0.6718769	1.2839406
Br	-2.7153216	2.9247999	-3.3214798
H	-1.6190750	2.3869160	-4.1050838
