19
-0.00445926 (energy)
C	-0.6989454	2.6287508	-1.6601446
H	-0.3247327	3.6096087	-1.9446161
C	-1.9481001	2.2230564	-2.1271373
H	-2.5318025	2.8819048	-2.7641138
C	-2.4426237	0.9726316	-1.7759874
H	-3.4146323	0.6486838	-2.1370565
C	-1.6863423	0.1309398	-0.9586340
H	-2.0886488	-0.8441002	-0.6970700
C	-0.4307338	0.5237304	-0.4773457
N	0.2909072	-0.3525992	0.3171626
H	1.1876056	-0.0907846	0.6984799
H	-0.1008974	-1.2460472	0.5784270
C	1.4123499	2.2671894	-0.3566892
H	1.6397966	3.2713609	-0.7300933
H	2.2030909	1.5974855	-0.7097767
H	1.4309314	2.3109388	0.7371121
C	0.0699654	1.7881622	-0.8360441
Br	4.0448916	-0.9971200	0.7863049
H	3.7504211	-2.0336684	-0.1852739
