19
0.000681106 (energy)
C	-1.0988299	-2.3407249	-1.2223656
H	-1.5291353	-3.2306510	-1.6761390
C	-1.7960158	-1.7030629	-0.1974869
H	-2.7528179	-2.0949870	0.1363606
C	-1.2617232	-0.5656428	0.3960019
H	-1.7983279	-0.0638635	1.1962436
C	-0.0312088	-0.0688712	-0.0370406
H	0.3715981	0.8200373	0.4410364
C	0.6813635	-0.6947731	-1.0680416
N	1.9069327	-0.1749778	-1.4524314
H	2.4337050	-0.5886625	-2.2070132
H	2.2622709	0.6669189	-1.0223571
C	0.8580638	-2.5686685	-2.7734619
H	0.2931885	-3.4407725	-3.1196894
H	1.8334266	-2.9245155	-2.4263515
H	0.9953860	-1.9035799	-3.6322169
C	0.1410398	-1.8476140	-1.6656705
Br	6.0598744	-0.4125921	-3.1843981
H	4.8750219	0.1960474	-3.7595446
