19
0.000718606 (energy)
C	-0.8931621	-0.4911887	2.6723759
H	-1.2229539	-0.6657023	3.6940529
C	-0.0485492	0.5867574	2.4121475
H	0.2701363	1.2370063	3.2221752
C	0.3850064	0.8250751	1.1134343
H	1.0444514	1.6622627	0.9028092
C	-0.0272473	-0.0155617	0.0781323
H	0.3244290	0.1852904	-0.9303078
C	-0.8786451	-1.1012354	0.3208458
N	-1.2473645	-1.9180894	-0.7359220
H	-1.8775661	-2.6939180	-0.5982493
H	-0.9386708	-1.7094773	-1.6746490
C	-2.2246081	-2.4942701	1.9637101
H	-2.4623359	-2.5297793	3.0322360
H	-1.7467514	-3.4434728	1.7008175
H	-3.1696309	-2.3970404	1.4195236
C	-1.3141451	-1.3431891	1.6361215
Br	4.3125905	0.3799256	1.1727750
H	3.8971247	1.2432858	0.0832300
