19
0.000830736 (energy)
C	1.6194922	1.8958611	1.4012685
H	2.2424273	2.6043427	1.9426068
C	1.8221178	0.5312502	1.6008612
H	2.5917927	0.1895262	2.2874137
C	1.0350421	-0.3895235	0.9196053
H	1.1859038	-1.4546441	1.0708424
C	0.0470414	0.0569520	0.0404081
H	-0.5601143	-0.6781175	-0.4811320
C	-0.1679721	1.4243691	-0.1750336
N	-1.1717970	1.8201173	-1.0443330
H	-1.3364718	2.7963993	-1.2386869
H	-1.7139095	1.1313677	-1.5460873
C	0.4434703	3.8364092	0.3342464
H	1.1468109	4.4095309	0.9477334
H	-0.5682653	4.1331701	0.6288129
H	0.6167341	4.1136411	-0.7106377
C	0.6271296	2.3552077	0.5174293
Br	1.9519934	-2.4735135	-1.6438002
H	3.1854145	-3.2353913	-1.7014654
