19
0.000839856 (energy)
C	1.8267609	-1.4162666	0.9016810
H	2.6025221	-1.5543960	1.6514518
C	1.0426785	-0.2646943	0.9480882
H	1.2101719	0.4774547	1.7237748
C	0.0475940	-0.0693830	-0.0022182
H	-0.5666933	0.8261310	0.0264120
C	-0.1606974	-1.0264255	-0.9967823
H	-0.9417466	-0.8547437	-1.7326197
C	0.6153757	-2.1911702	-1.0564129
N	0.3831711	-3.1045993	-2.0721348
H	0.9090347	-3.9638057	-2.1291406
H	-0.3622010	-2.9515321	-2.7362207
C	2.4946112	-3.6122764	-0.1076789
H	3.2223461	-3.5988168	0.7106999
H	3.0552357	-3.6713675	-1.0461105
H	1.8830192	-4.5126037	0.0107543
C	1.6241908	-2.3861134	-0.0959748
Br	-0.7005456	-7.6843012	-3.2103579
H	-0.6144992	-6.2416898	-3.3391182
