19
0.000912606 (energy)
C	-1.0498256	-1.4245813	0.9034279
H	-1.8151094	-1.5430137	0.1396505
C	-1.1126295	-2.2172101	2.0483527
H	-1.9161344	-2.9387385	2.1679584
C	-0.1430016	-2.0817575	3.0347078
H	-0.1842681	-2.6968122	3.9292013
C	0.8872357	-1.1538297	2.8733560
H	1.6376521	-1.0642635	3.6542672
C	0.9638913	-0.3465734	1.7310177
N	2.0144915	0.5483579	1.6073251
H	2.0852858	1.1599938	0.8080082
H	2.6928729	0.6454022	2.3492148
C	0.0120131	0.3458966	-0.5196663
H	-0.8254509	0.1058947	-1.1834254
H	0.9366127	0.1634229	-1.0766800
H	-0.0608715	1.4092525	-0.2694212
C	-0.0162368	-0.4868720	0.7321096
Br	6.1934457	1.1852157	0.8845919
H	4.9734498	1.9433442	0.6797455
