19
-0.0043885 (energy)
C	0.0855449	-2.4776557	-1.4263597
H	0.1303035	-3.4250754	-1.9587448
C	0.8749629	-2.3054629	-0.2904785
H	1.5213029	-3.1094437	0.0506789
C	0.8328896	-1.1014321	0.4023143
H	1.4461601	-0.9590401	1.2876039
C	0.0013383	-0.0724511	-0.0428753
H	-0.0159345	0.8626624	0.5105086
C	-0.8013787	-0.2293604	-1.1801969
N	-1.5980354	0.8262083	-1.5938097
H	-2.2047472	0.7370417	-2.3950387
H	-1.6294790	1.6824892	-1.0591944
C	-1.5885542	-1.6772997	-3.1128095
H	-1.4287661	-2.6783652	-3.5273679
H	-1.3258468	-0.9529201	-3.8904369
H	-2.6528693	-1.5867680	-2.8726054
C	-0.7554940	-1.4472245	-1.8822322
Br	3.4886970	0.8565735	-2.5531252
H	2.6448688	0.0464330	-1.6947913
