19
0.000972636 (energy)
C	0.3762452	2.2070835	1.0691665
H	-0.0500017	3.0783375	1.5613772
C	-0.4746527	1.1826445	0.6573960
H	-1.5446183	1.2610652	0.8293054
C	0.0508839	0.0621328	0.0251882
H	-0.6058662	-0.7398042	-0.2999120
C	1.4263446	-0.0308812	-0.1937407
H	1.8182308	-0.9135419	-0.6920424
C	2.2965380	0.9873788	0.2166073
N	3.6525195	0.8583625	-0.0376208
H	4.3078713	1.5630033	0.2657158
H	4.0127104	0.0232080	-0.4767091
C	2.6425017	3.2518789	1.3136550
H	2.0606826	4.0490272	1.7885909
H	3.1716116	3.6925129	0.4625793
H	3.3686827	2.8915356	2.0495044
C	1.7630518	2.1222604	0.8534653
Br	4.4264137	-4.2405072	-1.6199594
H	4.4337252	-2.8641398	-1.1609712
