19
0.00103022 (energy)
C	1.4155947	-1.6902876	1.1379431
H	1.5153110	-2.7038884	1.5196648
C	0.2192328	-1.3145400	0.5291826
H	-0.5950306	-2.0285418	0.4414015
C	0.0720374	-0.0233093	0.0367612
H	-0.8577373	0.2775404	-0.4377092
C	1.1219030	0.8890343	0.1545952
H	0.9869905	1.8948592	-0.2341003
C	2.3323377	0.5275713	0.7601262
N	3.3398884	1.4724715	0.8695246
H	4.2313574	1.2370938	1.2792784
H	3.2174397	2.3969866	0.4818428
C	3.7506330	-1.2276105	1.9258622
H	3.6891646	-2.2713790	2.2518866
H	3.9522560	-0.6170620	2.8118781
H	4.5910975	-1.1497432	1.2285698
C	2.4788695	-0.7785383	1.2608838
Br	-1.1478374	-1.1053852	-3.0796299
H	-0.5188053	-1.3416921	-4.3655492
