19
0.00107511 (energy)
C	0.6084450	-2.7883469	-1.4176924
H	1.3244892	-3.3126744	-2.0465029
C	-0.5284929	-3.4668139	-0.9816738
H	-0.6891347	-4.5020128	-1.2699210
C	-1.4541550	-2.8144232	-0.1760945
H	-2.3419740	-3.3367862	0.1689102
C	-1.2402375	-1.4849250	0.1915291
H	-1.9739571	-0.9925510	0.8241369
C	-0.1051958	-0.7866520	-0.2404092
N	0.0728049	0.5265806	0.1641879
H	0.8675179	1.0639110	-0.1484221
H	-0.6265454	0.9861263	0.7296489
C	2.0733368	-0.7573506	-1.5458984
H	2.6865429	-1.4206953	-2.1651521
H	2.6889832	-0.4334174	-0.7006219
H	1.8061908	0.1102049	-2.1579775
C	0.8323992	-1.4490120	-1.0530265
Br	0.6799567	5.2653223	1.1095880
H	0.4276319	3.9427595	0.5689673
