19
0.00114448 (energy)
C	0.8688822	1.0481038	0.4629535
H	0.4149705	1.7895858	1.1165667
C	0.0812722	0.0049572	-0.0213741
H	-0.9676940	-0.0590250	0.2544974
C	0.6426986	-0.9512478	-0.8591654
H	0.0351113	-1.7664195	-1.2418486
C	1.9906360	-0.8616150	-1.2105971
H	2.4109831	-1.6172206	-1.8688811
C	2.7977902	0.1777608	-0.7303102
N	4.1262101	0.2348032	-1.1201940
H	4.7394175	0.9571438	-0.7734685
H	4.5167932	-0.4858505	-1.7102131
C	3.0384936	2.2895364	0.6602404
H	2.4358201	2.9435212	1.2994676
H	3.4321939	2.9006820	-0.1582622
H	3.8680106	1.9108315	1.2661650
C	2.2276076	1.1465827	0.1149283
Br	-1.4807391	-2.7954433	1.3647141
H	-1.0442102	-3.0044019	2.7325188
