19
0.00124556 (energy)
C	0.4551100	0.5263424	1.2584285
H	1.2217956	1.2959262	1.2038812
C	-0.0299577	-0.0262100	0.0741766
H	0.3567008	0.3120783	-0.8832080
C	-1.0083948	-1.0119406	0.1233499
H	-1.3904856	-1.4484459	-0.7951181
C	-1.4991856	-1.4427005	1.3570613
H	-2.2621894	-2.2163036	1.3753022
C	-1.0258300	-0.8959711	2.5568517
N	-1.5308264	-1.3674360	3.7579604
H	-1.2276725	-0.9783012	4.6381249
H	-2.2591254	-2.0670992	3.7663979
C	0.5199737	0.7228322	3.7573233
H	1.2802481	1.4778018	3.5303285
H	0.9905662	-0.0399762	4.3859022
H	-0.2784490	1.2185367	4.3189804
C	-0.0333553	0.0992885	2.5058183
Br	3.6585345	-0.0976923	0.1545125
H	3.8883531	-0.1242800	-1.2778238
