19
0.00133936 (energy)
C	0.8242534	1.1165315	-0.3765202
H	0.3536037	1.8636121	-1.0116586
C	0.0799974	0.0083581	0.0248426
H	-0.9525150	-0.0995187	-0.2957969
C	0.6643266	-0.9578863	0.8349989
H	0.0913109	-1.8250721	1.1508400
C	1.9918217	-0.8133697	1.2416253
H	2.4320929	-1.5806792	1.8727883
C	2.7534366	0.2955306	0.8507822
N	4.0724307	0.3872506	1.2652755
H	4.6403494	1.1843896	1.0202130
H	4.4666599	-0.3157107	1.8739199
C	2.9265299	2.4821387	-0.4298227
H	2.3114548	3.1338009	-1.0595385
H	3.7978490	2.1805743	-1.0199983
H	3.2545703	3.0719520	0.4322506
C	2.1618646	1.2710773	0.0282840
Br	3.7186271	-1.3226034	5.5756857
H	4.4576394	-1.8523645	4.4450555
