19
-0.00423517 (energy)
C	-0.4115563	-2.5668969	-1.8429859
H	0.1098606	-3.3899490	-2.3264639
C	-1.7936994	-2.4647569	-1.9923359
H	-2.3334439	-3.1992429	-2.5837200
C	-2.4779826	-1.4211088	-1.3807993
H	-3.5552787	-1.3354738	-1.4913142
C	-1.7780582	-0.4821843	-0.6211939
H	-2.3308892	0.3252225	-0.1484980
C	-0.3886928	-0.5673123	-0.4634207
N	0.2606106	0.3782482	0.3139359
H	1.2628923	0.3581971	0.4281600
H	-0.2558078	1.1411809	0.7277776
C	1.7923458	-1.7762742	-0.9457559
H	2.1606716	-2.6519633	-1.4907583
H	2.0681118	-1.9028958	0.1060832
H	2.3006776	-0.8968330	-1.3542194
C	0.3022053	-1.6257887	-1.0802185
Br	4.1042429	0.4982700	1.3749396
H	4.9440777	0.7951418	0.2296644
