19
0.00137773 (energy)
C	-0.7315607	-0.9867607	0.7476136
H	-0.3225037	-1.9945017	0.7345020
C	-0.0703790	0.0176996	0.0426627
H	0.8379909	-0.2107467	-0.5079780
C	-0.5784890	1.3112357	0.0459400
H	-0.0697474	2.0991977	-0.5021583
C	-1.7468772	1.5968835	0.7542816
H	-2.1302435	2.6136761	0.7427774
C	-2.4223072	0.6006833	1.4711184
N	-3.5877593	0.9280959	2.1452735
H	-4.0848190	0.2390829	2.6895258
H	-3.9232505	1.8806776	2.1525465
C	-2.5888261	-1.8238136	2.2095295
H	-2.0519887	-2.7716767	2.0960208
H	-3.6039664	-1.9723704	1.8276048
H	-2.6299788	-1.5951556	3.2794279
C	-1.9087806	-0.7086666	1.4643921
Br	0.0277462	-2.0435326	-2.7379180
H	-1.1391345	-2.8406106	-3.0668056
