19
0.00179652 (energy)
C	0.0728382	-0.0057796	0.0419865
H	-0.8672721	0.0688165	-0.4999261
C	1.2131148	-0.4241024	-0.6419966
H	1.1549785	-0.6697943	-1.6987769
C	2.4239866	-0.5240262	0.0327082
H	3.3173546	-0.8479438	-0.4936802
C	2.4913636	-0.2051157	1.3899960
H	3.4476374	-0.2868588	1.8997289
C	1.3548191	0.2134550	2.0939424
N	1.4740550	0.5355565	3.4363269
H	0.6701865	0.8178426	3.9768154
H	2.3599583	0.4312125	3.9099373
C	-1.1244662	0.7649682	2.1058907
H	-1.9802218	0.7856070	1.4226781
H	-0.9972772	1.7763032	2.5052274
H	-1.3712461	0.0776109	2.9215500
C	0.1306748	0.3171965	1.4092085
Br	2.9015829	3.8047121	3.2667449
H	3.7920596	3.0544484	4.1323467
