19
0.00212371 (energy)
C	-0.3397311	-2.5446422	-1.8879391
H	-0.2898641	-2.8808083	-2.9211608
C	-0.6598174	-3.4680297	-0.8939784
H	-0.8549757	-4.5043552	-1.1556493
C	-0.7267104	-3.0580410	0.4322404
H	-0.9741499	-3.7719757	1.2127433
C	-0.4731138	-1.7253553	0.7610433
H	-0.5276034	-1.4243343	1.8038215
C	-0.1535772	-0.7831859	-0.2252065
N	0.1068030	0.5246871	0.1511353
H	0.3169432	1.2318882	-0.5371419
H	0.0277169	0.8031873	1.1187107
C	0.2593920	-0.2393880	-2.6716131
H	0.2671861	-0.7339289	-3.6487986
H	1.2548695	0.1864496	-2.5099584
H	-0.4805800	0.5662679	-2.7165641
C	-0.0831039	-1.2000791	-1.5666183
Br	2.5869469	-0.6861360	1.5957161
H	2.7487396	-1.9151404	2.3496935
