19
0.00251146 (energy)
C	-0.0684245	-2.2018620	-1.8242038
H	-0.0953745	-3.0284706	-2.5306268
C	-0.0090856	-0.8984251	-2.3147023
H	0.0097634	-0.7199985	-3.3863074
C	0.0243123	0.1710886	-1.4278839
H	0.0691671	1.1898422	-1.8023740
C	-0.0018692	-0.0657967	-0.0525027
H	0.0222557	0.7834306	0.6251404
C	-0.0577923	-1.3691454	0.4580169
N	-0.0991476	-1.5542274	1.8306047
H	-0.1163050	-2.4805404	2.2301892
H	-0.0489883	-0.7617110	2.4546407
C	-0.1599461	-3.8728522	0.0430686
H	-0.1798955	-4.5825160	-0.7908993
H	-1.0681562	-4.0323217	0.6331272
H	0.7186888	-4.1066410	0.6529900
C	-0.0947402	-2.4504999	-0.4405705
Br	3.0599074	1.0867785	-1.9932968
H	3.3195794	0.0221011	-2.9441613
