19
0.00258715 (energy)
C	-0.0047111	0.0702691	-0.0462789
H	0.0560942	-0.8366818	0.5510352
C	-1.0548354	0.9580186	0.1821878
H	-1.7961049	0.7399014	0.9460422
C	-1.1486530	2.1230867	-0.5696344
H	-1.9633018	2.8205920	-0.3965812
C	-0.1916934	2.3974188	-1.5481248
H	-0.2803949	3.3147642	-2.1239536
C	0.8681669	1.5148695	-1.7936413
N	1.8034849	1.8379845	-2.7635587
H	2.5651537	1.2127674	-2.9803119
H	1.6996048	2.6787746	-3.3133770
C	2.0795540	-0.6480452	-1.2409146
H	1.9959891	-1.5039486	-0.5627042
H	3.0474647	-0.1722690	-1.0532148
H	2.0545249	-1.0357521	-2.2644952
C	0.9637366	0.3376917	-1.0299195
Br	1.8373548	0.5672603	2.5666241
H	2.9714674	0.9265120	1.7360595
