19
0.00260457 (energy)
C	-2.2499108	-0.6287894	-0.8357156
H	-3.3252875	-0.6374344	-0.6728308
C	-1.4268959	-0.0536115	0.1311735
H	-1.8605988	0.3768484	1.0295804
C	-0.0502182	-0.0344901	-0.0580746
H	0.5979400	0.4106682	0.6914844
C	0.4999216	-0.5909102	-1.2140229
H	1.5787504	-0.5688511	-1.3429074
C	-0.3123025	-1.1698083	-2.1977121
N	0.2804608	-1.7248347	-3.3204498
H	-0.2779106	-2.1284540	-4.0575595
H	1.2813843	-1.6765232	-3.4462965
C	-2.6312539	-1.8018243	-3.0187999
H	-3.6782661	-1.7289064	-2.7057960
H	-2.4008319	-2.8635375	-3.1533967
H	-2.5377468	-1.2824098	-3.9780316
C	-1.7051298	-1.1913391	-2.0034938
Br	1.4263470	1.0204785	-4.8156848
H	2.6831351	0.3692104	-5.1341877
