19
0.00272756 (energy)
C	-0.2560146	1.2478587	0.6671649
H	-0.5327588	2.0825407	0.0270399
C	0.0057096	0.0093714	0.0834636
H	-0.0679836	-0.1115841	-0.9937866
C	0.3624940	-1.0687668	0.8845534
H	0.5693872	-2.0367752	0.4370395
C	0.4567589	-0.9054158	2.2676311
H	0.7397209	-1.7594394	2.8771765
C	0.1937782	0.3309758	2.8714956
N	0.3168296	0.4492837	4.2465681
H	0.1119972	1.3196283	4.7140740
H	0.5536829	-0.3552229	4.8093193
C	-0.4543839	2.7763263	2.6449735
H	-0.7175034	3.5037056	1.8695959
H	0.4259197	3.1594758	3.1710035
H	-1.2985303	2.7160862	3.3395586
C	-0.1641137	1.4220645	2.0593434
Br	3.0481547	0.6106770	-1.0884195
H	2.2553441	1.6222004	-1.7617564
