19
0.00338467 (energy)
C	-0.4081566	-1.2670880	0.5437831
H	-1.1372172	-1.2271477	1.3499572
C	0.0298804	-0.0736039	-0.0278609
H	-0.3557804	0.8763887	0.3317344
C	0.9623949	-0.1039615	-1.0578691
H	1.3097356	0.8219208	-1.5075468
C	1.4546240	-1.3281249	-1.5135094
H	2.1852463	-1.3314254	-2.3179654
C	1.0228845	-2.5372838	-0.9531423
N	1.5525154	-3.7268510	-1.4268338
H	1.2453106	-4.6153205	-1.0604120
H	2.2106594	-3.7237720	-2.1928992
C	-0.4186660	-3.7669561	0.7383078
H	-1.1460556	-3.5545269	1.5290677
H	0.4120797	-4.3156085	1.1935960
H	-0.9145430	-4.4022222	-0.0027748
C	0.0815015	-2.5050177	0.0913236
Br	3.8318416	-1.0817859	0.2928201
H	4.7405347	-1.5567742	1.3193549
