19
0.00355112 (energy)
C	-0.0393551	0.0407750	-0.0623718
H	0.4685949	-0.4855011	0.7426509
C	-0.7265985	-0.6997328	-1.0227896
H	-0.7493346	-1.7842534	-0.9609267
C	-1.3833039	-0.0453025	-2.0581065
H	-1.9222302	-0.6152889	-2.8096300
C	-1.3510989	1.3483422	-2.1301547
H	-1.8728203	1.8422059	-2.9455532
C	-0.6624009	2.1081831	-1.1757898
N	-0.6726974	3.4899198	-1.2790384
H	-0.1672960	4.0643643	-0.6213144
H	-1.1367517	3.9407589	-2.0545492
C	0.7519278	2.2024351	0.9318051
H	1.2047844	1.5279021	1.6662771
H	0.0760111	2.8725118	1.4727109
H	1.5601220	2.7854816	0.4784405
C	-0.0008692	1.4448149	-0.1267566
Br	2.7028734	-1.3481761	-1.0604410
H	3.3748979	-0.4607498	-0.1298668
