19
0.00464971 (energy)
C	-0.3985173	-2.7927478	0.4715310
H	-0.5611966	-3.8551556	0.6384633
C	-1.0280942	-2.1765861	-0.6087630
H	-1.6688857	-2.7553296	-1.2682863
C	-0.8339796	-0.8196006	-0.8375247
H	-1.3222477	-0.3318841	-1.6764768
C	-0.0106480	-0.0821648	0.0149934
H	0.1267836	0.9783224	-0.1785234
C	0.6327482	-0.6857291	1.1032153
N	1.4269311	0.0904889	1.9319022
H	1.9221714	-0.3185437	2.7100070
H	1.5717682	1.0694517	1.7302261
C	1.0906917	-2.7646784	2.4886476
H	0.8260053	-3.8270984	2.5156251
H	0.7717356	-2.3215176	3.4375000
H	2.1801127	-2.6991909	2.4018506
C	0.4329452	-2.0584229	1.3354706
Br	3.7651231	-0.3901709	0.1214595
H	4.5155372	-1.5752436	-0.2494750
