19
0.00549888 (energy)
C	-1.9202597	-0.3997237	-2.0816872
H	-2.6454692	-0.5375766	-2.8805046
C	-1.0226512	0.6636358	-2.1630693
H	-1.0536263	1.3387348	-3.0138401
C	-0.0896913	0.8573074	-1.1513880
H	0.6122630	1.6845283	-1.2068798
C	-0.0569408	-0.0131126	-0.0606222
H	0.6779839	0.1561292	0.7218177
C	-0.9489618	-1.0889773	0.0357573
N	-0.8897296	-1.9163444	1.1456753
H	-1.5025154	-2.7130608	1.2337340
H	-0.1865035	-1.7692370	1.8555004
C	-2.8828009	-2.4146041	-0.9410462
H	-3.5397403	-2.4134463	-1.8173750
H	-3.5176524	-2.3291000	-0.0532974
H	-2.3579344	-3.3752847	-0.9246666
C	-1.8947169	-1.2819946	-0.9872010
Br	1.1868257	-3.5887199	-0.2212071
H	2.0160090	-2.4026957	-0.3256709
