19
0.00602155 (energy)
C	-0.6579246	-1.5132368	-1.8528747
H	-0.8439210	-1.6422579	-2.9167357
C	-0.2643327	-0.2605261	-1.3850513
H	-0.1474819	0.5678185	-2.0783912
C	-0.0236840	-0.0754333	-0.0288615
H	0.2820011	0.8981716	0.3436486
C	-0.1774646	-1.1438740	0.8561581
H	0.0126839	-0.9789923	1.9133368
C	-0.5687707	-2.4103872	0.4030584
N	-0.7247857	-3.4362632	1.3213179
H	-0.9829106	-4.3653264	1.0242811
H	-0.5200866	-3.2828022	2.2983375
C	-1.2423047	-3.9286061	-1.5185369
H	-1.3869897	-3.8907721	-2.6035060
H	-2.1919637	-4.2376731	-1.0701277
H	-0.4777732	-4.6853439	-1.3148213
C	-0.8150658	-2.5955710	-0.9692381
Br	2.9066932	-0.9976803	1.1302257
H	3.6501672	-2.2431615	1.0965516
