19
0.00699307 (energy)
C	-1.5694149	-2.3088066	1.5366471
H	-1.7267215	-3.3843628	1.5750489
C	-2.2406380	-1.4969684	2.4495742
H	-2.9081809	-1.9393457	3.1838887
C	-2.0513138	-0.1205428	2.4174647
H	-2.5697309	0.5187070	3.1264903
C	-1.1908813	0.4405024	1.4722887
H	-1.0536590	1.5185001	1.4645224
C	-0.5110419	-0.3598043	0.5450330
N	0.3458367	0.2406726	-0.3633443
H	0.8321259	-0.3051718	-1.0587538
H	0.4475885	1.2453125	-0.3824303
C	0.0025870	-2.6673801	-0.3836459
H	-0.2634300	-3.7160392	-0.2131406
H	1.0876174	-2.5796955	-0.2676034
H	-0.2766871	-2.4203533	-1.4130362
C	-0.7010805	-1.7529193	0.5806455
Br	3.1247488	0.4849980	0.7335398
H	3.6293310	-0.7507152	0.1647513
