19
0.00701281 (energy)
C	1.5493904	1.4907977	-1.2380657
H	1.8394813	1.9367295	-2.1867667
C	0.4512361	0.6328819	-1.2049727
H	-0.1003359	0.4186969	-2.1162477
C	0.0661552	0.0519690	-0.0026105
H	-0.7876983	-0.6187864	0.0310825
C	0.7805934	0.3305241	1.1637765
H	0.4659325	-0.1353012	2.0938112
C	1.8843843	1.1930331	1.1496480
N	2.5728581	1.4260835	2.3293319
H	3.3574434	2.0598603	2.3570934
H	2.2583916	1.0112302	3.1947952
C	3.4533425	2.7082496	-0.1517566
H	3.6110388	3.0697515	-1.1735057
H	4.3673837	2.1927370	0.1600460
H	3.2911356	3.5835974	0.4855155
C	2.2749798	1.7777884	-0.0684030
Br	3.7059908	-1.1498015	0.7249346
H	3.3082111	-2.4978732	0.3649557
