19
0.0080272 (energy)
C	0.2580493	1.2707507	-0.6216164
H	-0.1591975	1.4080615	-1.6166502
C	0.0445462	0.0610034	0.0371593
H	-0.5304044	-0.7263572	-0.4424489
C	0.5711140	-0.1340731	1.3084159
H	0.4102690	-1.0745776	1.8277365
C	1.3101293	0.8814130	1.9176105
H	1.7160873	0.7092139	2.9108450
C	1.5314609	2.1046937	1.2717994
N	2.2856745	3.0766861	1.9092595
H	2.4435973	3.9764576	1.4809028
H	2.6367841	2.9199482	2.8431623
C	1.2064865	3.5874981	-0.7645817
H	0.7240377	3.5648207	-1.7475628
H	2.2743293	3.7668732	-0.9257703
H	0.7749767	4.4241498	-0.2055883
C	1.0006984	2.2996614	-0.0160014
Br	1.9890262	-0.5371048	-2.3829223
H	3.3486627	-0.6367318	-1.8863603
