19
0.0101816 (energy)
C	0.8679225	-0.1533279	-1.1362239
H	0.6447646	-0.9877546	-1.7972641
C	0.0645654	0.0516948	-0.0156703
H	-0.7687689	-0.6155206	0.1865835
C	0.3348161	1.1114481	0.8418315
H	-0.2857949	1.2769831	1.7179331
C	1.4081393	1.9635186	0.5764512
H	1.6052992	2.7850390	1.2599726
C	2.2236232	1.7745594	-0.5468280
N	3.2878669	2.6359613	-0.7597476
H	3.8795799	2.5408440	-1.5714411
H	3.4486600	3.4133162	-0.1353405
C	2.7910812	0.4397577	-2.6318845
H	2.4351972	-0.4336288	-3.1887197
H	3.8293879	0.2462079	-2.3439556
H	2.7530207	1.2993698	-3.3088476
C	1.9509716	0.6998089	-1.4121166
Br	3.1212432	-0.0862027	1.9353815
H	2.7681182	-1.4490561	1.5846052
