19
0.0108788 (energy)
C	0.0880335	1.6874649	1.8167574
H	0.1188585	2.7371251	2.1001380
C	0.0408492	1.3563051	0.4635522
H	0.0350989	2.1398728	-0.2891214
C	0.0027471	0.0206222	0.0815554
H	-0.0327090	-0.2455453	-0.9710659
C	0.0120768	-0.9806318	1.0541173
H	-0.0154816	-2.0193398	0.7358476
C	0.0556182	-0.6660199	2.4185216
N	0.0804133	-1.6943309	3.3469205
H	0.0883542	-1.5009062	4.3371435
H	0.0271469	-2.6565998	3.0448934
C	0.1498741	1.0899936	4.2511966
H	0.1757400	2.1788836	4.3659676
H	1.0504937	0.6872417	4.7256654
H	-0.7368134	0.7245328	4.7792916
C	0.0973443	0.6860395	2.8036793
Br	3.0379436	1.1882833	1.6299968
H	3.3216573	-0.2328274	1.7011440
