19
0.0114571 (energy)
C	2.2694048	-0.9434407	1.4629831
H	3.1416655	-1.3009921	2.0055323
C	2.4225126	-0.5257176	0.1419521
H	3.4004549	-0.5598199	-0.3302713
C	1.3195128	-0.0672306	-0.5684020
H	1.4304571	0.2587162	-1.5987242
C	0.0659377	-0.0278238	0.0443542
H	-0.7851088	0.3312930	-0.5281179
C	-0.1055958	-0.4402750	1.3721101
N	-1.3722060	-0.3991225	1.9324385
H	-1.5248808	-0.6672362	2.8930754
H	-2.1533652	-0.0387462	1.4033466
C	0.8927897	-1.3685063	3.5151869
H	1.8585210	-1.6954308	3.9151949
H	0.2035212	-2.2161806	3.5844872
H	0.5335151	-0.5516726	4.1495095
C	1.0108824	-0.9070355	2.0888828
Br	2.5537393	-3.5178227	-0.0426011
H	3.3447595	-3.7049974	-1.2444178
