19
0.0119412 (energy)
C	0.3174351	0.0810148	-1.4001698
H	-0.2054427	0.8505051	-1.9636632
C	0.0554683	-0.0510577	-0.0374564
H	-0.6604512	0.6079347	0.4459868
C	0.7123041	-1.0294663	0.6992288
H	0.5125238	-1.1395918	1.7613371
C	1.6295362	-1.8735347	0.0709714
H	2.1311804	-2.6342594	0.6631034
C	1.9077037	-1.7526696	-1.2966872
N	2.8131920	-2.6243459	-1.8799832
H	3.0525087	-2.5485153	-2.8572217
H	3.2957506	-3.3110103	-1.3181573
C	1.4901376	-0.5858949	-3.5137664
H	0.8877697	0.2285573	-3.9301119
H	1.2289804	-1.4997496	-4.0570083
H	2.5422527	-0.3415841	-3.6927265
C	1.2399436	-0.7641615	-2.0417377
Br	3.1927448	0.6381173	0.9290800
H	2.3290019	1.4426271	1.7727761
