19
0.0119749 (energy)
C	1.2008045	0.4181373	-0.6715903
H	1.1501317	1.3744617	-1.1872620
C	0.0706761	-0.0457321	-0.0002540
H	-0.8415279	0.5445239	0.0030245
C	0.1152552	-1.2661675	0.6630499
H	-0.7617338	-1.6351395	1.1873242
C	1.2901933	-2.0197557	0.6531048
H	1.3048662	-2.9727544	1.1751655
C	2.4363519	-1.5673525	-0.0133240
N	3.5742652	-2.3579880	-0.0099162
H	4.4228034	-2.0501235	-0.4607155
H	3.5891274	-3.2296154	0.5000486
C	3.5829806	0.2057669	-1.4248677
H	3.3681264	1.1751930	-1.8870079
H	3.8782951	-0.4818598	-2.2238697
H	4.4218633	0.3484609	-0.7359738
C	2.3889402	-0.3335638	-0.6868739
Br	-0.7995676	-2.1249987	-2.0603071
H	-1.9723282	-2.9220767	-1.7530448
