40
-0.00270432 (energy)
C	1.5640350	4.3080647	1.2872591
H	0.2986815	4.8432008	-0.2841478
C	0.7380720	4.0180703	0.2727337
H	2.0734521	3.5432533	1.8639288
H	1.7665047	5.3418368	1.5501201
C	0.4033088	2.6873387	-0.2052068
C	0.3380663	1.6002080	0.5863863
H	0.5075308	1.7101642	1.6533292
O	0.2058522	2.6301966	-1.5731294
C	-1.1616106	2.8519161	-1.9186589
H	-1.2560584	2.7377929	-3.0025731
H	-1.4734476	3.8682160	-1.6562621
H	-1.8226371	2.1214606	-1.4409554
S	0.0000000	0.0000000	0.0000000
C	0.2974408	-0.9183258	1.4982848
C	-0.7679378	-1.2573325	2.3381178
C	-0.5360019	-1.9787809	3.5110758
H	-1.7836583	-0.9636998	2.0848197
C	0.7603494	-2.3679386	3.8462013
H	-1.3673887	-2.2398814	4.1607917
C	1.5946753	-1.3181793	1.8354414
C	1.8254539	-2.0394521	3.0085366
H	0.9400433	-2.9319271	4.7580764
H	2.8355310	-2.3478151	3.2657520
H	2.4319936	-1.0722318	1.1865040
C	8.3284231	1.3198077	-1.6740712
C	7.0821008	1.7097430	-1.9698903
H	9.1433602	2.0351448	-1.6484120
H	8.5617009	0.2816003	-1.4518765
H	6.8489147	2.7438668	-2.1915074
C	5.9710025	0.7348884	-2.0051730
O	6.0748987	-0.4591118	-1.7809401
O	4.8394949	1.4074865	-2.3315474
C	3.6484154	0.6110841	-2.4073125
C	3.5067931	0.0109453	-3.7935736
H	2.8039208	1.2787966	-2.2075006
H	3.6363026	-0.1636338	-1.6319061
H	3.5191997	0.7968588	-4.5558802
H	2.5718075	-0.5497882	-3.8797336
H	4.3400901	-0.6626916	-4.0170840
