40
-0.00199724 (energy)
C	-0.8124269	2.2224277	1.2840134
H	1.0026598	1.5499825	2.0650945
C	0.1912611	1.3389485	1.3714677
H	-1.6767726	2.0648917	0.6475552
H	-0.7961616	3.1302926	1.8792371
C	0.2839159	0.0752114	0.6603250
C	-0.2247083	-0.1331088	-0.5687533
H	-0.7049745	0.6893750	-1.0903284
O	0.9050836	-0.9208512	1.3920876
C	2.3135594	-0.9461918	1.1595834
H	2.7308394	-1.7869572	1.7215492
H	2.7881009	-0.0279386	1.5209440
H	2.5455785	-1.0966652	0.1002220
S	-0.1674253	-1.6638720	-1.3886839
C	-1.1929690	-1.2707345	-2.7923767
C	-0.6099531	-0.8707003	-3.9987520
C	-1.4126883	-0.5646688	-5.0996942
H	0.4708755	-0.7959025	-4.0897630
C	-2.8001070	-0.6619709	-5.0002916
H	-0.9548636	-0.2540464	-6.0353322
C	-2.5848320	-1.3742137	-2.7008097
C	-3.3865227	-1.0679093	-3.8022247
H	-3.4244770	-0.4262405	-5.8584771
H	-4.4676728	-1.1501167	-3.7256765
H	-3.0524609	-1.6952774	-1.7729342
C	7.7323886	-0.7337024	-0.3562756
C	7.4612925	0.5572953	-0.5858609
H	8.5367388	-1.2351294	-0.8836084
H	7.1592903	-1.3162714	0.3605475
H	8.0317050	1.1383315	-1.2999535
C	6.3647881	1.2410986	0.1326217
O	5.6360038	0.7231786	0.9616835
O	6.3229648	2.5255905	-0.3004481
C	5.3111687	3.3466250	0.3002504
C	4.0057572	3.2102565	-0.4608327
H	5.6637341	4.3817092	0.2433797
H	5.1826678	3.1085694	1.3625153
H	4.1503978	3.4525620	-1.5187989
H	3.2440393	3.8769308	-0.0468582
H	3.6313755	2.1825829	-0.4177909
