40
-0.0019725 (energy)
C	1.4676429	0.3037408	-2.2364433
H	1.0236068	2.1621751	-1.3962863
C	0.8562732	1.0885330	-1.3387231
H	1.3198465	-0.7704693	-2.2713551
H	2.1254668	0.7364211	-2.9839927
C	-0.0691237	0.6502268	-0.3077680
C	0.0010442	-0.5473176	0.3035366
H	0.8106115	-1.2253218	0.0503826
O	-1.0713529	1.5668989	-0.0456314
C	-0.6988195	2.4737444	0.9923255
H	-1.5522242	3.1302857	1.1858933
H	0.1462598	3.0980889	0.6841133
H	-0.4572197	1.9472712	1.9213989
S	-1.1453392	-1.0923484	1.4899387
C	-0.5851434	-2.7745389	1.6717804
C	0.2906766	-3.1156711	2.7070797
C	0.7282856	-4.4339005	2.8515867
H	0.6365385	-2.3592975	3.4073274
C	0.2885078	-5.4163234	1.9651781
H	1.4091891	-4.6942089	3.6578857
C	-1.0292255	-3.7656570	0.7903890
C	-0.5909783	-5.0834021	0.9357603
H	0.6273342	-6.4429490	2.0797445
H	-0.9392871	-5.8497624	0.2481005
H	-1.7196248	-3.5181686	-0.0126117
C	6.6367051	2.9937407	-4.6832563
C	5.5893786	3.6076875	-5.2481052
H	7.5895833	3.5015923	-4.5803104
H	6.5660915	1.9742855	-4.3125968
H	5.6589719	4.6232760	-5.6177517
C	4.2903676	2.9156610	-5.3888020
O	4.0569947	1.7758331	-5.0240547
O	3.4279654	3.7711995	-5.9917401
C	2.1033384	3.2630978	-6.2058977
C	2.0367509	2.5123261	-7.5226556
H	1.4311663	4.1267668	-6.2404884
H	1.7767663	2.6347390	-5.3691746
H	2.3643299	3.1533345	-8.3477165
H	1.0171795	2.1715546	-7.7236346
H	2.7004773	1.6419841	-7.5126869
