40
-0.00192781 (energy)
C	3.7133645	-2.1883680	4.4882053
H	5.2434918	-3.2951590	3.5990856
C	4.2632395	-2.8445565	3.4573671
H	2.7232615	-1.7475043	4.4399844
H	4.2490408	-2.0981151	5.4282478
C	3.6498699	-3.0675060	2.1591331
C	2.7941551	-2.2070745	1.5759186
H	2.5637375	-1.2695124	2.0729709
O	3.9901712	-4.2833888	1.5940750
C	5.1536938	-4.1767815	0.7734932
H	5.3322677	-5.1546625	0.3166840
H	6.0334141	-3.9159100	1.3709865
H	5.0157989	-3.4461330	-0.0301607
S	2.0139928	-2.5073916	0.0527772
C	0.8993172	-1.1168828	0.0275992
C	1.2506407	0.0533590	-0.6523878
C	0.3768727	1.1424661	-0.6744791
H	2.2044241	0.1244566	-1.1694086
C	-0.8526028	1.0641149	-0.0213860
H	0.6544534	2.0500609	-1.2043174
C	-0.3386088	-1.1926835	0.6742587
C	-1.2114769	-0.1030813	0.6515894
H	-1.5336399	1.9112784	-0.0411726
H	-2.1723470	-0.1673520	1.1556739
H	-0.6310289	-2.1001808	1.1973752
C	6.2228013	4.2709933	-1.7494735
C	5.8397924	4.3283758	-0.4677211
H	7.0558428	4.8660242	-2.1078982
H	5.7149016	3.6310670	-2.4665480
H	6.3451989	4.9657710	0.2472568
C	4.7041470	3.5175703	0.0211856
O	4.0379294	2.7566029	-0.6598384
O	4.5460858	3.7795395	1.3423998
C	3.4809859	3.0684029	1.9893270
C	2.1768629	3.8293875	1.8406370
H	3.7442105	2.9932426	3.0495155
H	3.3939218	2.0450411	1.6062602
H	2.2797347	4.8480748	2.2287335
H	1.3701830	3.3256285	2.3805797
H	1.8910081	3.9171055	0.7876793
