40
-0.00192613 (energy)
C	-0.5981464	-0.1628700	-0.0619751
H	1.1603293	0.8556730	-0.5385705
C	0.6933970	0.1369871	0.1318667
H	-1.1460131	-0.8375145	0.5873991
H	-1.1484484	0.2900248	-0.8810164
C	1.5386578	-0.3682887	1.2003099
C	1.4039659	-1.5902311	1.7493494
H	0.6480353	-2.2659220	1.3605221
O	2.4723970	0.5519026	1.6417231
C	3.7017730	0.4420112	0.9240442
H	4.4084294	1.1550614	1.3587979
H	3.5652593	0.7004642	-0.1311932
H	4.1328309	-0.5605642	1.0120979
S	2.3755626	-2.1659025	3.0697302
C	1.5182978	-3.6917487	3.4066888
C	1.9774120	-4.8922990	2.8560803
C	1.3076119	-6.0885717	3.1214333
H	2.8584499	-4.9045053	2.2191411
C	0.1799236	-6.0898830	3.9415533
H	1.6682395	-7.0192828	2.6910468
C	0.3912820	-3.7002276	4.2350234
C	-0.2777145	-4.8969212	4.4996241
H	-0.3395656	-7.0218474	4.1500297
H	-1.1529902	-4.8978920	5.1441354
H	0.0290523	-2.7764170	4.6800801
C	3.4729621	4.6804000	-2.6295881
C	3.1934545	3.7781655	-3.5786539
H	3.0499782	5.6783885	-2.6694830
H	4.1278941	4.4433850	-1.7949914
H	2.5411700	4.0135743	-4.4105250
C	3.7700237	2.4177297	-3.5247240
O	4.5192517	2.0047817	-2.6559073
O	3.3191690	1.7331966	-4.6051694
C	3.7787087	0.3782534	-4.7129644
C	5.1125836	0.3332975	-5.4345599
H	3.0281604	-0.1688942	-5.2928288
H	3.8384835	-0.1023572	-3.7295875
H	5.0359706	0.8155051	-6.4146270
H	5.4433199	-0.6997344	-5.5742105
H	5.8814229	0.8734621	-4.8731015
