40
-0.00181185 (energy)
C	-0.5983697	0.1713671	-0.0270879
H	1.0456651	-1.0729769	-0.3519994
C	0.7035034	-0.1305111	0.0707357
H	-1.0102564	1.1085749	0.3320512
H	-1.2872178	-0.5220631	-0.4997584
C	1.7369096	0.7125360	0.6475228
C	1.5256169	1.5685233	1.6650544
H	0.5401935	1.6206545	2.1182641
O	2.9603082	0.5907537	0.0135422
C	3.7678358	-0.4215922	0.6148403
H	4.7352490	-0.4258400	0.1040485
H	3.3147491	-1.4107212	0.4911621
H	3.9446651	-0.2199218	1.6763403
S	2.7490907	2.6206984	2.3091374
C	1.7379396	3.5854229	3.4152706
C	1.6540973	3.2442472	4.7687277
C	0.8638481	4.0009553	5.6364902
H	2.2032040	2.3895596	5.1561024
C	0.1587391	5.1036875	5.1557798
H	0.8017494	3.7317606	6.6877685
C	1.0347626	4.6972909	2.9402269
C	0.2448513	5.4531670	3.8087527
H	-0.4541758	5.6940844	5.8322826
H	-0.2994542	6.3163465	3.4343785
H	1.0992253	4.9821714	1.8926586
C	6.1362632	-5.7618997	-3.7654389
C	5.6462479	-4.7093711	-3.0983961
H	6.4543414	-6.6549804	-3.2384464
H	6.2303519	-5.7550861	-4.8483815
H	5.5523250	-4.7153351	-2.0194870
C	5.2127566	-3.4917171	-3.8164002
O	5.2574302	-3.3336202	-5.0245892
O	4.7693681	-2.6020833	-2.8938078
C	4.2999053	-1.3517341	-3.4181161
C	5.4558116	-0.3810921	-3.5719931
H	3.5784398	-0.9532767	-2.6972450
H	3.7650223	-1.4914768	-4.3646686
H	5.9784008	-0.2512969	-2.6185892
H	5.0999803	0.5944067	-3.9152570
H	6.1916343	-0.7570313	-4.2898803
