40
-0.001809 (energy)
C	1.8053136	0.8405198	3.4557259
H	2.1285903	-0.1107840	1.6261568
C	1.4518244	0.5144753	2.2050006
H	1.1676279	1.4251014	4.1104100
H	2.7526433	0.5008830	3.8631420
C	0.2071817	0.8724297	1.5461582
C	-0.4686166	2.0117126	1.7871160
H	-0.0574369	2.7346519	2.4853036
O	-0.2514929	-0.1002553	0.6761191
C	0.2436122	0.1001351	-0.6479727
H	-0.1999101	-0.6657645	-1.2910126
H	1.3317854	-0.0166793	-0.6825183
H	-0.0411500	1.0812756	-1.0416677
S	-1.9889193	2.4059340	1.0441003
C	-2.3832734	3.8762391	1.9711054
C	-2.0730804	5.1377079	1.4536566
C	-2.3837684	6.2902753	2.1783456
H	-1.5895482	5.2315066	0.4843958
C	-3.0096424	6.1863631	3.4200232
H	-2.1405746	7.2686666	1.7720017
C	-3.0182300	3.7783478	3.2135314
C	-3.3283627	4.9314296	3.9373170
H	-3.2537653	7.0840420	3.9825760
H	-3.8219325	4.8496807	4.9023088
H	-3.2764338	2.8048680	3.6238723
C	0.3489873	-4.7511147	-0.7851859
C	1.6528372	-5.0530355	-0.7439931
H	-0.4036076	-5.5315463	-0.7533183
H	0.0055210	-3.7218900	-0.8514525
H	1.9958201	-6.0781815	-0.6781141
C	2.6790294	-3.9894793	-0.7876260
O	2.4509458	-2.7940460	-0.8626468
O	3.8961538	-4.5852135	-0.7335228
C	5.0207736	-3.6946098	-0.7604078
C	5.4085109	-3.3835063	-2.1938713
H	5.8475886	-4.2082115	-0.2588839
H	4.8187285	-2.7793103	-0.1920819
H	5.6082805	-4.3069985	-2.7472062
H	6.3012126	-2.7525548	-2.2259251
H	4.5971770	-2.8678243	-2.7172610
