40
-0.00171563 (energy)
C	0.8699861	-1.4168750	-4.4607457
H	0.1414234	-3.1997791	-3.6562218
C	0.4214101	-2.1693596	-3.4467834
H	1.2072051	-0.3945534	-4.3260907
H	0.9294912	-1.8286277	-5.4635884
C	0.3186241	-1.7594390	-2.0565530
C	0.0588072	-0.4982049	-1.6634714
H	-0.1226984	0.2646339	-2.4146761
O	0.5661032	-2.7860183	-1.1630456
C	-0.6312780	-3.4795690	-0.8112359
H	-0.3731257	-4.2361849	-0.0644399
H	-1.0581757	-3.9920571	-1.6796105
H	-1.3736283	-2.8062088	-0.3705275
S	0.0000000	0.0000000	0.0000000
C	-0.1472934	1.7602557	-0.2376031
C	-1.4058547	2.3692813	-0.2179146
C	-1.5219180	3.7487175	-0.4017565
H	-2.3024601	1.7753547	-0.0584839
C	-0.3806435	4.5246438	-0.6010311
H	-2.5024354	4.2175856	-0.3857415
C	0.9946878	2.5446290	-0.4299890
C	0.8774761	3.9238060	-0.6137761
H	-0.4713078	5.5988733	-0.7413874
H	1.7682004	4.5287151	-0.7627677
H	1.9813041	2.0871768	-0.4361107
C	5.3104500	3.7447434	0.3376381
C	4.9601801	2.4829868	0.6172072
H	4.9475739	4.5692557	0.9417809
H	5.9647610	3.9814186	-0.4975419
H	4.3082397	2.2463937	1.4490120
C	5.4544623	1.3588137	-0.2062282
O	6.1910879	1.4645039	-1.1721078
O	4.9397022	0.2128819	0.3047321
C	5.3223710	-0.9918977	-0.3740450
C	4.3775462	-1.2650163	-1.5293180
H	5.2556440	-1.8053031	0.3559243
H	6.3646014	-0.9465539	-0.7106297
H	3.3417965	-1.3087375	-1.1768462
H	4.6248483	-2.2121718	-2.0169467
H	4.4267758	-0.4649565	-2.2747093
