40
-0.0015337 (energy)
C	-2.6971149	1.3624520	2.6032610
H	-2.4124117	-0.1214695	1.1632157
C	-1.9431931	0.6793134	1.7311962
H	-2.3146674	2.2003304	3.1765706
H	-3.7415709	1.1023071	2.7454254
C	-0.5476500	0.9376861	1.4196785
C	0.3418277	1.4222430	2.3066754
H	0.0256772	1.6036280	3.3295753
O	-0.2255925	0.6854848	0.0982627
C	0.2162889	-0.6590801	-0.0898615
H	0.5059482	-0.7729295	-1.1386467
H	-0.5896775	-1.3704056	0.1184509
H	1.0887299	-0.8882490	0.5306626
S	1.9936101	1.7896152	1.9123965
C	2.4796540	2.5750489	3.4367015
C	3.1294103	1.8376252	4.4313369
C	3.5125636	2.4528165	5.6250061
H	3.3422893	0.7817464	4.2834495
C	3.2520901	3.8077108	5.8267352
H	4.0173072	1.8753993	6.3952861
C	2.2280520	3.9356444	3.6412767
C	2.6115316	4.5497350	4.8352120
H	3.5530095	4.2868105	6.7550670
H	2.4136909	5.6074276	4.9889934
H	1.7341333	4.5251593	2.8723629
C	5.2736869	-0.4991537	1.0109322
C	5.6780129	-0.9008886	-0.2006813
H	5.9825238	-0.3849962	1.8239552
H	4.2298930	-0.2762761	1.2170472
H	6.7177127	-1.1232606	-0.4067806
C	4.7120262	-1.0568214	-1.3091400
O	3.5133669	-0.8467880	-1.2328975
O	5.3986949	-1.4730243	-2.4020623
C	4.6124510	-1.6732161	-3.5854521
C	4.0390719	-3.0778169	-3.6020655
H	5.2824382	-1.5392486	-4.4410840
H	3.8236433	-0.9171253	-3.6731947
H	4.8388288	-3.8206253	-3.5151757
H	3.4867932	-3.2603040	-4.5282029
H	3.3636803	-3.2365211	-2.7554330
