40
-0.00150584 (energy)
C	0.0648542	1.0085174	-2.4953155
H	-0.2744550	-1.0503345	-2.5483052
C	-0.0480192	-0.1943819	-1.9157759
H	0.3287934	1.9027558	-1.9406409
H	-0.0871264	1.1174562	-3.5648054
C	0.1579783	-0.4892102	-0.5079472
C	-0.1123415	0.3763740	0.4872516
H	-0.5433892	1.3435211	0.2464190
O	0.7121858	-1.7368474	-0.2849629
C	-0.2918755	-2.7375386	-0.1147208
H	0.2114454	-3.6820028	0.1121491
H	-0.8705584	-2.8740395	-1.0342063
H	-0.9615245	-2.5004165	0.7183848
S	0.1953411	0.0430957	2.1644696
C	-0.1682422	1.6506059	2.8429744
C	-1.4337974	1.9198682	3.3732048
C	-1.7187535	3.1784087	3.9070481
H	-2.2044087	1.1529119	3.3753107
C	-0.7387948	4.1703044	3.9172010
H	-2.7040337	3.3830048	4.3179878
C	0.8133167	2.6468566	2.8630157
C	0.5272903	3.9049181	3.3969779
H	-0.9602803	5.1490569	4.3353838
H	1.2937884	4.6755087	3.4101708
H	1.8058654	2.4489067	2.4650527
C	8.5287917	-3.6764475	2.0802270
C	7.6456671	-3.4716032	1.0948299
H	8.9257772	-4.6671009	2.2738669
H	8.8735531	-2.8625814	2.7130186
H	7.3015984	-4.2819388	0.4640568
C	7.1041350	-2.1213783	0.8307054
O	7.3926883	-1.1132366	1.4528778
O	6.2407430	-2.2173429	-0.2107181
C	5.6183798	-0.9882378	-0.6115077
C	4.3633944	-0.7456208	0.2058612
H	5.3540978	-1.0934421	-1.6688737
H	6.3149178	-0.1451521	-0.5364669
H	3.6780070	-1.5951427	0.1193631
H	3.8493299	0.1586110	-0.1319941
H	4.6017602	-0.6356665	1.2685085
