40
-0.00145648 (energy)
C	0.3789782	1.3117508	2.3202582
H	-0.2642728	2.6282204	0.8336696
C	0.0476808	1.6098753	1.0565584
H	0.7387838	0.3316569	2.6151241
H	0.3150925	2.0685241	3.0961366
C	0.1146835	0.7088782	-0.0814465
C	-0.0854274	-0.6199947	0.0009056
H	-0.3483463	-1.0583200	0.9589873
O	0.4577261	1.3424556	-1.2622801
C	-0.6953137	1.7920436	-1.9742311
H	-0.3567659	2.2302686	-2.9177134
H	-1.2270065	2.5667539	-1.4120153
H	-1.3739999	0.9651963	-2.2075346
S	0.0585339	-1.7018537	-1.3510041
C	-0.1005393	-3.2536461	-0.4888634
C	-1.3424195	-3.8919011	-0.4137580
C	-1.4674290	-5.1088812	0.2596251
H	-2.2188545	-3.4475183	-0.8790038
C	-0.3512183	-5.6943632	0.8559169
H	-2.4349192	-5.6011803	0.3154147
C	1.0172670	-3.8494776	0.1043219
C	0.8911216	-5.0662982	0.7774344
H	-0.4485130	-6.6431376	1.3776928
H	1.7630563	-5.5250446	1.2365475
H	1.9920902	-3.3711109	0.0443475
C	7.9223923	0.4561910	2.0211708
C	6.9653580	0.2550428	1.1065658
H	8.1503456	-0.3014785	2.7631023
H	8.4972113	1.3783940	2.0492502
H	6.3921512	-0.6633912	1.0780234
C	6.6541955	1.2877096	0.0951790
O	7.2091470	2.3692087	-0.0002130
O	5.6524412	0.8138533	-0.6865925
C	5.2211397	1.6916877	-1.7363798
C	4.1588859	2.6438734	-1.2197537
H	4.7981653	1.0621970	-2.5261709
H	6.0663972	2.2341338	-2.1755628
H	3.3216870	2.0871966	-0.7860092
H	3.7809715	3.2779984	-2.0266676
H	4.5582710	3.2861499	-0.4284890
