40
-0.00129682 (energy)
C	1.7889940	1.9557872	0.4714970
H	2.5053627	0.1256956	1.1746258
C	1.6587052	0.6482382	0.7340109
H	0.9785994	2.5557684	0.0711554
H	2.7251506	2.4652047	0.6785698
C	0.4602695	-0.1493783	0.5367795
C	-0.4386636	0.0759873	-0.4398777
H	-0.2572585	0.8738549	-1.1537932
O	0.2998392	-1.1412961	1.4874781
C	0.9088535	-2.3665808	1.0796994
H	0.6970430	-3.1174932	1.8465640
H	1.9957018	-2.2584596	1.0020439
H	0.4986377	-2.7252760	0.1300770
S	-1.9021990	-0.8403399	-0.6327810
C	-2.6723905	0.1251493	-1.9178048
C	-2.5389772	-0.2536034	-3.2572165
C	-3.1439992	0.5010621	-4.2644608
H	-1.9653199	-1.1375345	-3.5248941
C	-3.8881671	1.6336892	-3.9363609
H	-3.0373623	0.2027123	-5.3042320
C	-3.4266180	1.2576863	-1.5939595
C	-4.0310821	2.0115728	-2.6018899
H	-4.3612482	2.2193156	-4.7206600
H	-4.6162244	2.8907531	-2.3446862
H	-3.5492899	1.5582565	-0.5560188
C	7.0127098	-2.1229922	-0.3010498
C	6.9837102	-1.8181310	1.0024441
H	7.5446102	-2.9994053	-0.6552673
H	6.5079420	-1.5064965	-1.0405133
H	7.4864611	-2.4317474	1.7397489
C	6.2589348	-0.6234175	1.4856482
O	5.6484197	0.1622748	0.7809000
O	6.4033575	-0.5675929	2.8329580
C	5.7535147	0.5371213	3.4779220
C	6.6653525	1.7497399	3.4850847
H	5.5440060	0.2283284	4.5073340
H	4.7895727	0.7631334	3.0074713
H	7.6224178	1.5083272	3.9590797
H	6.2026278	2.5796999	4.0264682
H	6.8890627	2.0791277	2.4654844
