40
-0.00243596 (energy)
C	-2.8445205	-2.3140386	-1.5689490
H	-1.1845382	-1.1668686	-2.1030555
C	-1.7617617	-1.5800340	-1.2783563
H	-3.4947315	-2.7257503	-0.8042862
H	-3.1176198	-2.5014172	-2.6029125
C	-1.2992513	-1.2262988	0.0529196
C	-1.4590924	-2.0103788	1.1356933
H	-1.9271107	-2.9835438	1.0213053
O	-0.7185078	0.0275924	0.1158535
C	0.6898067	-0.0310693	-0.1115523
H	1.0908148	0.9797892	0.0074951
H	0.9097150	-0.3652296	-1.1308350
H	1.1892974	-0.6825339	0.6128956
S	-0.9613781	-1.5553909	2.7369646
C	-1.6715437	-2.9118012	3.6493607
C	-0.8896730	-4.0234289	3.9783569
C	-1.4447466	-5.0855975	4.6951582
H	0.1549461	-4.0693942	3.6804873
C	-2.7813149	-5.0383734	5.0896636
H	-0.8329933	-5.9476279	4.9484753
C	-3.0094990	-2.8663387	4.0545562
C	-3.5635036	-3.9289686	4.7711748
H	-3.2122349	-5.8643153	5.6500358
H	-4.6037804	-3.8884649	5.0837241
H	-3.6271015	-2.0034539	3.8164199
C	6.4096382	-0.6395695	-1.5456133
C	6.4248640	0.4464351	-0.7625170
H	7.3336155	-1.1245485	-1.8415007
H	5.4777580	-1.0667433	-1.9072561
H	7.3528622	0.8726959	-0.4019301
C	5.1655628	1.1079311	-0.3591442
O	4.0465293	0.7488386	-0.6839944
O	5.4864427	2.1698269	0.4210042
C	4.3750306	2.9328850	0.9120979
C	3.9792284	3.9923484	-0.0992484
H	4.7022051	3.4138572	1.8397609
H	3.5279189	2.2855372	1.1669161
H	4.8349214	4.6309505	-0.3419461
H	3.1711651	4.6178173	0.2904517
H	3.6465657	3.5357560	-1.0367910
