40
-0.000912523 (energy)
C	0.1029966	-0.6119933	0.0547955
H	-0.4970467	1.2850075	0.6857833
C	-0.0934862	0.6994475	-0.1377941
H	0.5394161	-1.2555380	-0.7017614
H	-0.1556079	-1.0707714	1.0042275
C	0.2336845	1.4467117	-1.3402482
C	0.1905386	0.9270683	-2.5815534
H	-0.1398502	-0.0985881	-2.7158967
O	0.6480159	2.7415205	-1.0847759
C	-0.4480347	3.6564918	-1.0870546
H	-0.0451698	4.6622936	-0.9358026
H	-1.1408572	3.4418336	-0.2667628
H	-0.9824978	3.6444002	-2.0425256
S	0.6439358	1.8055658	-4.0103558
C	0.5661489	0.4765513	-5.1953960
C	-0.5861668	0.2872177	-5.9645500
C	-0.6470630	-0.7524648	-6.8948535
H	-1.4419794	0.9471758	-5.8457719
C	0.4448051	-1.6032371	-7.0630496
H	-1.5450306	-0.8957169	-7.4903711
C	1.6612763	-0.3750215	-5.3739864
C	1.5992787	-1.4143033	-6.3044138
H	0.3979127	-2.4108069	-7.7893560
H	2.4532501	-2.0731218	-6.4393006
H	2.5687316	-0.2332676	-4.7916270
C	4.9628392	-3.0561327	2.2665222
C	4.5830190	-1.9739082	1.5755776
H	4.8446023	-4.0509067	1.8506704
H	5.3985387	-2.9730602	3.2589579
H	4.1487375	-2.0558519	0.5868478
C	4.7438399	-0.6177368	2.1422008
O	5.2131010	-0.3641671	3.2386531
O	4.2759827	0.2706719	1.2305772
C	4.3593810	1.6505979	1.6146560
C	3.1279121	2.0494619	2.4060695
H	4.4092306	2.2371512	0.6913975
H	5.2792982	1.8540448	2.1749696
H	2.2184712	1.8415480	1.8328206
H	3.1538335	3.1145268	2.6530684
H	3.0560411	1.4767408	3.3360977
