40
-0.000906773 (energy)
C	-0.0714998	-0.6060058	0.1256638
H	-0.2960216	1.4457032	0.4369346
C	0.1215953	0.6768263	-0.2099392
H	0.3469838	-1.4291396	-0.4438206
H	-0.6474404	-0.8598105	1.0103390
C	0.8930186	1.1585927	-1.3431415
C	1.0026326	0.4982188	-2.5113112
H	0.4615127	-0.4334802	-2.6465966
O	1.5540043	2.3471272	-1.0902580
C	0.7573505	3.4789477	-1.4407285
H	1.3576856	4.3772760	-1.2692099
H	-0.1351529	3.5419421	-0.8095158
H	0.4693781	3.4589431	-2.4968505
S	1.9776204	1.0468326	-3.8406814
C	1.8357785	-0.3782210	-4.9016968
C	0.8795671	-0.4027164	-5.9216656
C	0.7693035	-1.5179632	-6.7548397
H	0.2162239	0.4449596	-6.0749283
C	1.6171688	-2.6101862	-6.5746926
H	0.0243680	-1.5323890	-7.5462757
C	2.6888686	-1.4733768	-4.7306824
C	2.5777002	-2.5880030	-5.5642863
H	1.5327470	-3.4770477	-7.2253178
H	3.2432688	-3.4363568	-5.4271098
H	3.4453344	-1.4643542	-3.9494079
C	2.1850606	5.6656505	4.4599350
C	2.5567445	4.3914194	4.6361848
H	1.6583388	6.2041022	5.2403977
H	2.3976392	6.1973093	3.5359150
H	2.3452039	3.8610125	5.5564135
C	3.2745716	3.6570377	3.5724491
O	3.5821353	4.1154334	2.4852559
O	3.5166177	2.4020407	4.0258964
C	4.2176011	1.5418319	3.1163192
C	3.2368109	0.8506111	2.1877679
H	4.7403977	0.7941304	3.7217629
H	4.9814315	2.0922199	2.5548694
H	2.4819893	0.3046895	2.7632149
H	3.7553753	0.1479036	1.5294846
H	2.7013512	1.5782355	1.5697282
