40
-0.000886983 (energy)
C	1.0843957	-4.0630841	2.2311647
H	0.5532182	-2.8865900	3.8714457
C	0.7111840	-2.9062140	2.7950243
H	1.3011229	-4.1546783	1.1720944
H	1.2036237	-4.9549552	2.8387215
C	0.5440719	-1.6350927	2.1111644
C	0.1370792	-1.5185497	0.8330782
H	-0.1202691	-2.4136666	0.2747651
O	0.8951391	-0.5452168	2.8873015
C	-0.2199375	-0.0389642	3.6213431
H	0.1129006	0.8496193	4.1658178
H	-0.5741922	-0.7722372	4.3533091
H	-1.0399167	0.2557547	2.9583976
S	0.0000000	0.0000000	0.0000000
C	-0.3437766	-0.6077311	-1.6398570
C	-1.6636884	-0.7044038	-2.0912590
C	-1.9337539	-1.1783467	-3.3767767
H	-2.4887952	-0.4109078	-1.4469556
C	-0.8858076	-1.5526284	-4.2170154
H	-2.9614376	-1.2517991	-3.7231565
C	0.7038185	-0.9771041	-2.4898470
C	0.4326410	-1.4509244	-3.7749940
H	-1.0964355	-1.9189617	-5.2186765
H	1.2505167	-1.7365109	-4.4315174
H	1.7361299	-0.8965076	-2.1573577
C	2.3354477	0.4163347	6.8147031
C	3.1086101	0.0452491	5.7864069
H	1.4173474	-0.1154161	7.0401381
H	2.6010934	1.2561586	7.4517210
H	2.8445692	-0.7912444	5.1512195
C	4.3600775	0.7699914	5.4786672
O	4.7889253	1.7284835	6.0984201
O	4.9253903	0.1800847	4.3962396
C	6.1634008	0.7562466	3.9557454
C	5.8964143	1.9026342	2.9984278
H	6.7176132	-0.0336761	3.4382449
H	6.7783871	1.0775406	4.8043629
H	5.2828815	1.5655199	2.1564914
H	6.8341678	2.3106491	2.6108895
H	5.3434192	2.7071872	3.4934210
