40
-0.00238043 (energy)
C	0.0458029	-2.9287987	2.7069748
H	-0.4720952	-0.9203080	2.4734015
C	-0.1453811	-1.8271377	1.9684865
H	0.4097820	-3.8598460	2.2854773
H	-0.1423561	-2.9107627	3.7761078
C	0.0951293	-1.7008430	0.5410606
C	-0.0560538	-2.7098656	-0.3374305
H	-0.4119499	-3.6726510	0.0169113
O	0.5486019	-0.4475654	0.1707573
C	-0.5298483	0.4264155	-0.1633189
H	-0.1006621	1.3752320	-0.4985219
H	-1.1574241	0.6282098	0.7109738
H	-1.1398078	0.0224881	-0.9778826
S	0.2940066	-2.5714513	-2.0336329
C	0.1003874	-4.2801553	-2.5021332
C	-1.1130247	-4.7307633	-3.0311511
C	-1.2647983	-6.0689007	-3.4005638
H	-1.9462023	-4.0442781	-3.1600752
C	-0.2032878	-6.9599259	-3.2471065
H	-2.2099989	-6.4145021	-3.8112506
C	1.1642949	-5.1766232	-2.3578377
C	1.0114198	-6.5144011	-2.7274658
H	-0.3210687	-8.0009626	-3.5373810
H	1.8414798	-7.2068451	-2.6133387
H	2.1178661	-4.8386114	-1.9588867
C	3.8289867	1.0736891	-0.1041538
C	5.0127487	1.6603371	0.1136293
H	3.3662025	0.4558596	0.6578209
H	3.2978449	1.1968464	-1.0445709
H	5.5425971	1.5380103	1.0502181
C	5.6440035	2.5024275	-0.9248922
O	5.1735640	2.7330044	-2.0259064
O	6.8226786	2.9561506	-0.4308494
C	7.5758425	3.8024958	-1.3112536
C	8.4563468	2.9635060	-2.2183102
H	8.2015216	4.4432885	-0.6812961
H	6.9187681	4.4626959	-1.8891624
H	9.1070139	2.3113021	-1.6265437
H	9.0783568	3.6010568	-2.8528781
H	7.8530316	2.3138273	-2.8602258
