40
-0.00224345 (energy)
C	1.8104197	0.2236585	-1.9799672
H	1.4701085	2.0800321	-1.0884094
C	1.1696423	1.0349398	-1.1274413
H	1.5428593	-0.8199475	-2.1075918
H	2.6191112	0.6051596	-2.5957997
C	0.0553449	0.6680488	-0.2700776
C	-0.1093111	-0.5572216	0.2631489
H	0.6425664	-1.3196005	0.0824987
O	-0.8586281	1.6909669	-0.0918692
C	-0.5399780	2.4909157	1.0470112
H	-1.3285506	3.2405424	1.1611501
H	0.4097757	3.0168666	0.9045206
H	-0.5039857	1.8929948	1.9634810
S	-1.4764121	-1.0093102	1.2354936
C	-1.1535796	-2.7560466	1.3815824
C	-0.4888265	-3.2563822	2.5054348
C	-0.2374988	-4.6251147	2.6217034
H	-0.1638667	-2.5855243	3.2969012
C	-0.6537492	-5.4988029	1.6178687
H	0.2796841	-5.0093104	3.4971596
C	-1.5758373	-3.6380464	0.3815076
C	-1.3239544	-5.0064228	0.4987528
H	-0.4602629	-6.5646071	1.7101371
H	-1.6543810	-5.6874799	-0.2813002
H	-2.1043575	-3.2655026	-0.4929004
C	6.3764622	4.0652773	-2.4786677
C	5.4678183	5.0446516	-2.5685008
H	7.4359501	4.2926283	-2.4308678
H	6.0836224	3.0187856	-2.4510346
H	5.7587770	6.0874729	-2.5962240
C	4.0235053	4.7351203	-2.6338939
O	3.5421829	3.6150018	-2.6145399
O	3.3513008	5.9097039	-2.7217143
C	1.9223664	5.7992654	-2.7896676
C	1.4789574	5.6158556	-4.2290051
H	1.5101724	6.7333105	-2.3939508
H	1.5538373	4.9887530	-2.1502573
H	1.8534323	6.4333496	-4.8538230
H	0.3878303	5.5897759	-4.2983245
H	1.8779850	4.6865395	-4.6476649
