40
-0.00217077 (energy)
C	-3.9678027	0.4279978	-2.5953849
H	-3.9432323	2.2991544	-1.6707342
C	-3.4608778	1.3262391	-1.7399534
H	-3.5699123	-0.5765801	-2.6928348
H	-4.8246059	0.6819236	-3.2119760
C	-2.3427305	1.1125097	-0.8369548
C	-1.3028351	0.3018140	-1.1092035
H	-1.2614720	-0.2033345	-2.0695629
O	-2.4718737	1.7867328	0.3639664
C	-1.8831486	3.0861569	0.3056201
H	-1.9706121	3.5384812	1.2978738
H	-2.4137312	3.7263572	-0.4068303
H	-0.8204572	3.0370405	0.0467833
S	0.0000000	0.0000000	0.0000000
C	0.8415606	-1.2896890	-0.8972896
C	1.9287666	-0.9792082	-1.7200055
C	2.5900836	-1.9894133	-2.4216167
H	2.2682519	0.0488921	-1.8191399
C	2.1703406	-3.3135131	-2.2997351
H	3.4346554	-1.7431237	-3.0600114
C	0.4298877	-2.6206161	-0.7726571
C	1.0918041	-3.6299005	-1.4746949
H	2.6872203	-4.0999453	-2.8440226
H	0.7678471	-4.6625890	-1.3741480
H	-0.4065488	-2.8793251	-0.1275559
C	7.1443946	-0.2153391	-1.1490561
C	7.2192768	0.4536686	-2.3065098
H	7.4650645	0.2435147	-0.2200179
H	6.7627431	-1.2321734	-1.1037381
H	7.5995158	1.4666862	-2.3525032
C	6.7824504	-0.1715599	-3.5731581
O	6.3349304	-1.3004246	-3.6831645
O	6.9743787	0.7296954	-4.5682061
C	6.5960376	0.2898798	-5.8804896
C	7.7469753	-0.4487317	-6.5375578
H	6.3549110	1.1863291	-6.4611552
H	5.6899987	-0.3263186	-5.8491399
H	8.6430940	0.1799800	-6.5624239
H	7.4892631	-0.7367912	-7.5606169
H	8.0066749	-1.3512753	-5.9753315
