24
-0.0233228 (energy)
C	0.7724056	-1.5473424	2.3413944
N	1.4094853	-1.5712079	3.2452986
H	2.0234601	-0.8252592	3.4346314
H	1.3625534	-2.3383954	3.8604977
N	-0.0763973	-2.6147342	2.1116878
H	-0.0744454	-3.3880672	2.7690313
C	-0.9431459	-1.6417971	0.1306018
C	-0.9225232	-2.6560361	1.0168325
H	-1.5454843	-3.5402657	0.9336127
H	-1.5767924	-1.6080058	-0.7441031
C	0.1306826	0.5919832	-0.3266876
N	-0.0833216	-0.5671585	0.3689109
H	-0.3983157	0.8316531	-1.2359635
C	1.0964074	1.2707150	0.3881899
N	1.4866678	0.5670441	1.5050332
C	0.7641889	-0.5262882	1.4659745
C	1.7351218	4.8463592	2.1635148
H	1.3156075	5.8105356	2.4648675
H	1.5135080	4.1131346	2.9430094
H	1.2815978	4.5501333	1.2144472
C	3.2183632	4.9805724	1.9978819
O	3.8381524	6.0197220	2.1561322
O	3.8129675	3.8187665	1.6470638
H	3.1903734	3.0729834	1.5560607
