24
-0.0141305 (energy)
C	1.0308333	-0.2301889	-0.9444250
N	2.0527701	0.0365341	-0.6158111
H	2.8160198	-0.0985809	-1.2228079
H	2.1991106	0.4090487	0.2836701
N	-0.0139232	-0.0249668	-0.0618581
H	0.1934541	0.3468975	0.8594778
C	-1.6258087	-0.8054741	-1.6159480
C	-1.3255988	-0.3112375	-0.3993482
H	-2.0657366	-0.1122264	0.3684139
H	-2.6251925	-1.0509148	-1.9457193
C	-0.5374630	-1.4890613	-3.7839444
N	-0.5657263	-1.0101712	-2.5020981
H	-1.4276671	-1.7954560	-4.3109383
C	0.7927392	-1.4654577	-4.1504902
N	1.5886644	-0.9865727	-3.1346324
C	0.7482239	-0.7231970	-2.1634632
C	1.6235699	3.3894976	-5.4312889
H	2.1493770	4.3395374	-5.5631709
H	0.6497140	3.4613483	-5.9219873
H	2.2238780	2.5936847	-5.8790335
C	1.4379501	3.1240361	-3.9682345
O	1.8404569	3.8558837	-3.0786273
O	0.7721473	1.9732823	-3.7255558
H	0.5140909	1.4929521	-4.5347450
