24
-0.0136881 (energy)
C	-1.3562947	2.2386592	1.2735289
N	-2.1007521	3.0456643	1.1393313
H	-2.5427130	3.1677844	0.2681203
H	-2.3214064	3.6418293	1.8910947
N	-0.7582422	2.1006435	2.5128196
H	-1.0097606	2.7518230	3.2496045
C	0.5175973	0.2290073	1.8115539
C	0.1676809	1.1050319	2.7731413
H	0.5741005	1.0883373	3.7788313
H	1.2318655	-0.5708831	1.9447998
C	0.0458030	-0.3375297	-0.5985170
N	-0.0903720	0.3743705	0.5624821
H	0.7102907	-1.1827243	-0.6888820
C	-0.8073479	0.2689234	-1.4977939
N	-1.4674227	1.3344633	-0.9288291
C	-1.0179658	1.3720280	0.3022087
C	0.7941636	3.9427626	-3.2287000
H	0.1787965	4.5671382	-3.8828561
H	0.7346513	2.9094442	-3.5794908
H	1.8242319	4.3054401	-3.2685452
C	0.2771593	4.0343745	-1.8252163
O	-0.6698777	4.7237777	-1.4833717
O	0.9761049	3.2678313	-0.9590136
H	1.7065139	2.7733279	-1.3762264
