24
-0.0130543 (energy)
C	1.9750713	0.9476541	1.3918154
N	2.5617464	1.4186132	2.2026747
H	3.5321158	1.5472450	2.0973732
H	2.1135581	1.7091648	3.0296912
N	0.6145300	0.7851085	1.5790662
H	0.2047122	1.0875787	2.4569667
C	0.3232911	-0.1841662	-0.5652864
C	-0.1973305	0.2248281	0.6078238
H	-1.2495485	0.1447931	0.8594178
H	-0.2502430	-0.6289468	-1.3659033
C	2.5147655	-0.3224991	-1.8023394
N	1.6979816	-0.0169171	-0.7474705
H	2.1485102	-0.7761667	-2.7101425
C	3.7775732	0.0710294	-1.4088896
N	3.7673263	0.6108590	-0.1426851
C	2.5109040	0.5444694	0.2259232
C	7.6188764	-0.0344396	-2.1365001
H	7.5608167	1.0319901	-2.3727168
H	8.0132104	-0.1439864	-1.1231675
H	6.6161480	-0.4627205	-2.2091245
C	8.5319956	-0.7101394	-3.1137901
O	9.0939758	-0.1436106	-4.0369570
O	8.6726797	-2.0320817	-2.8706910
H	8.1621390	-2.3442342	-2.0999728
