24
-0.0122413 (energy)
C	2.1489869	-1.1007609	0.9519903
N	3.0973921	-1.2599372	1.4985006
H	3.5697097	-2.1205697	1.4244788
H	3.4692160	-0.5409850	2.0589502
N	1.5167779	0.1222767	1.0825552
H	1.9343185	0.8238397	1.6855622
C	-0.2352006	-0.5018276	-0.3883720
C	0.3380421	0.4128791	0.4173670
H	-0.0718765	1.4020573	0.5916119
H	-1.1526390	-0.3429635	-0.9368494
C	0.0908425	-2.8511853	-1.2405516
N	0.4087844	-1.7347356	-0.5154878
H	-0.7884931	-2.9105522	-1.8628923
C	1.0974411	-3.7563175	-0.9725104
N	2.0287123	-3.2341668	-0.1036679
C	1.5897111	-2.0253621	0.1511766
C	5.9533672	-2.1282797	-2.1231044
H	6.4242508	-2.8150098	-1.4138005
H	6.6844883	-1.8705900	-2.8934295
H	5.0855134	-2.6242009	-2.5647546
C	5.5177473	-0.8900521	-1.4002763
O	5.6551080	-0.7075766	-0.2015902
O	4.9450990	0.0198056	-2.2192106
H	4.9029769	-0.2652662	-3.1514430
