24
-0.0113085 (energy)
C	-2.8514821	0.5551207	0.1841117
N	-3.8506782	0.3257718	-0.2312066
H	-3.9376830	-0.2960311	-0.9895223
H	-4.6530204	0.7434375	0.1574469
N	-2.7723665	1.4335818	1.2492893
H	-3.6286867	1.8487678	1.6021132
C	-0.4150341	1.2212177	1.3922834
C	-1.5648580	1.7592646	1.8427513
H	-1.6180708	2.4582255	2.6706946
H	0.5606639	1.4303063	1.8070767
C	0.4597490	-0.3652346	-0.3598353
N	-0.5024937	0.3348975	0.3163072
H	1.5076691	-0.3043968	-0.1103842
C	-0.2214304	-1.0766115	-1.3264212
N	-1.5759242	-0.8381488	-1.2691786
C	-1.7125237	0.0089528	-0.2778985
C	-2.5023650	-1.3858273	-5.0705866
H	-2.2153287	-0.3461122	-5.2523681
H	-2.0754175	-2.0066963	-5.8621549
H	-2.1180679	-1.6878290	-4.0932055
C	-3.9965659	-1.4980044	-5.0858384
O	-4.7564757	-0.5579634	-5.2527921
O	-4.4283216	-2.7636109	-4.8902678
H	-3.7061842	-3.4087555	-4.7702536
