24
-0.0191564 (energy)
C	-0.5165118	-2.0517102	-1.0315538
N	0.2328067	-2.8178379	-0.7575953
H	0.9858867	-2.5815526	-0.1691303
H	0.1466696	-3.7360235	-1.1022178
N	-1.5590779	-2.4241715	-1.8603390
H	-1.5924461	-3.3797838	-2.2006917
C	-2.5285802	-0.2611744	-1.7965405
C	-2.5512049	-1.5345495	-2.2353055
H	-3.3210245	-1.9322292	-2.8880663
H	-3.2685791	0.4848355	-2.0487889
C	-1.1688862	1.2991536	-0.3582759
N	-1.4727784	0.1079519	-0.9599010
H	-1.7769239	2.1826664	-0.4755742
C	-0.0074057	1.0624755	0.3483339
N	0.4168721	-0.2388671	0.2024214
C	-0.4790518	-0.7837361	-0.5845441
C	2.7079923	3.8641749	1.0837861
H	2.5699151	4.9474151	1.1467701
H	1.8142624	3.4265666	0.6320244
H	3.5897399	3.6601233	0.4713751
C	2.9062916	3.3083226	2.4611598
O	2.9306050	3.9811754	3.4788491
O	3.0612901	1.9657992	2.4663423
H	3.0201040	1.5641890	1.5780234
