24
-0.00907205 (energy)
C	1.7430738	-0.6050740	-1.4614999
N	2.4089646	-1.3445304	-0.9785128
H	2.2288133	-1.6413722	-0.0572735
H	3.1817996	-1.7058520	-1.4698599
N	2.0307543	-0.2142382	-2.7565072
H	2.8488884	-0.6054074	-3.2123487
C	0.1472630	1.2226154	-2.8588482
C	1.2381093	0.6898517	-3.4425673
H	1.5556742	0.9259749	-4.4526496
H	-0.5146402	1.9322233	-3.3343469
C	-1.1490578	1.1725384	-0.6980518
N	-0.1371664	0.8233581	-1.5509373
H	-1.9248283	1.8713305	-0.9699587
C	-0.9109798	0.4583887	0.4585207
N	0.2173917	-0.3221569	0.3475200
C	0.6573005	-0.0824566	-0.8640495
C	-2.6055061	0.6796764	3.9541351
H	-2.0161791	1.1439300	3.1581427
H	-3.3986115	1.3721494	4.2470646
H	-3.0284461	-0.2540880	3.5754942
C	-1.7180184	0.3963946	5.1278343
O	-0.5213398	0.6329361	5.1598045
O	-2.3832111	-0.1591457	6.1648078
H	-3.3348434	-0.2901371	5.9935342
