24
-0.00771805 (energy)
C	0.5655860	0.8813419	-0.9544064
N	0.6558912	0.4835038	-1.9825372
H	1.0397653	1.0438282	-2.6952283
H	0.3523959	-0.4309190	-2.1849492
N	0.0209391	0.0623572	0.0177975
H	-0.2909347	-0.8664133	-0.2472842
C	0.2974169	1.7007484	1.7094819
C	-0.1091909	0.4728337	1.3334412
H	-0.5496274	-0.2492081	2.0128081
H	0.2260910	2.0857833	2.7166656
C	1.3430400	3.7965882	0.7788241
N	0.8464762	2.5224197	0.7224016
H	1.3688437	4.3717054	1.6913141
C	1.7464885	4.0857654	-0.5087926
N	1.5147901	3.0294647	-1.3604613
C	0.9766149	2.1106768	-0.5955608
C	-2.9934544	-4.2643743	-2.0369479
H	-4.0244477	-3.9025144	-1.9864315
H	-2.9974023	-5.3455073	-1.8773275
H	-2.5863004	-4.0207900	-3.0213540
C	-2.1800179	-3.5954756	-0.9709515
O	-2.6150660	-2.7614327	-0.1937004
O	-0.8941380	-4.0110532	-0.9558326
H	-0.6916038	-4.6801017	-1.6366053
