24
-0.00721924 (energy)
C	0.1510686	-0.1819498	-0.6245159
N	-0.0991568	0.1194264	0.4099128
H	-0.0256558	-0.5324807	1.1439877
H	-0.3953736	1.0395745	0.5965465
N	0.0346671	0.7635806	-1.6270025
H	-0.2904074	1.6936436	-1.3831633
C	0.7809256	-0.7498012	-3.2929364
C	0.3475349	0.4771625	-2.9447361
H	0.2198136	1.2922865	-3.6490998
H	1.0423696	-1.0420640	-4.2999060
C	1.2986741	-3.0075425	-2.2996909
N	0.8960706	-1.6996500	-2.2753577
H	1.6056197	-3.5056408	-3.2061930
C	1.2064533	-3.4396026	-0.9923385
N	0.7590547	-2.4390440	-0.1595650
C	0.5824800	-1.4121669	-0.9553171
C	3.9501820	0.6061500	-0.0668444
H	3.9463269	1.4599860	0.6168155
H	4.8491271	0.0143304	0.1228661
H	3.0511917	0.0114697	0.1129752
C	3.9566255	1.1025773	-1.4806941
O	3.9360106	2.2808342	-1.7973948
O	3.9850040	0.1004820	-2.3870165
H	3.9976816	-0.7889553	-1.9859704
