24
-0.00653017 (energy)
C	-0.6309459	1.1897892	0.4402859
N	-0.0036823	2.1007308	0.4258395
H	-0.3799579	2.9621875	0.7183466
H	0.9308955	2.0500723	0.1204754
N	-0.0646621	-0.0003782	0.0215008
H	0.8984383	0.0052543	-0.2987398
C	-2.0508368	-1.2234023	0.4479794
C	-0.7715328	-1.1906056	0.0274839
H	-0.2305695	-2.0637306	-0.3216285
H	-2.6606500	-2.1149783	0.4792593
C	-3.8654081	0.2790110	1.3435692
N	-2.6162357	-0.0177469	0.8694726
H	-4.6373801	-0.4661084	1.4572347
C	-3.8437723	1.6351175	1.5982414
N	-2.6193279	2.1867748	1.2962399
C	-1.9075927	1.1744274	0.8632707
C	2.6323439	1.6980407	-4.3962342
H	3.0857385	1.2132635	-3.5268286
H	3.3202736	2.4632938	-4.7643148
H	2.4512395	0.9405746	-5.1627911
C	1.3359925	2.3312921	-3.9913658
O	0.8661977	2.2808115	-2.8663066
O	0.7255288	2.9726143	-5.0123754
H	1.2186539	2.9270975	-5.8531211
