24
-0.00607431 (energy)
C	1.2731725	0.5985265	-0.1683460
N	1.4793962	1.0166903	-1.1713883
H	2.3449498	1.4477033	-1.3565804
H	0.7973979	0.9578708	-1.8789671
N	0.0452304	0.0013470	0.0509512
H	-0.6284465	-0.0187162	-0.7079330
C	0.5902104	-0.5514597	2.2914786
C	-0.2870049	-0.5656913	1.2693232
H	-1.2761622	-1.0067636	1.3317013
H	0.3978453	-0.9743160	3.2671560
C	2.9140487	0.2284388	2.8775930
N	1.8283331	0.0532866	2.0628489
H	2.9378493	-0.1187387	3.8988494
C	3.8440042	0.8930797	2.1044266
N	3.3670133	1.1346513	0.8359954
C	2.1606760	0.6212404	0.8420009
C	2.5949520	5.1045496	-2.9200795
H	2.8433063	4.0516307	-2.7584516
H	3.1541254	5.7070293	-2.1998808
H	2.8677587	5.3740083	-3.9433740
C	1.1237559	5.3041610	-2.7171262
O	0.3392208	4.4118935	-2.4389591
O	0.7431798	6.5909121	-2.8779179
H	1.4795519	7.1914714	-3.0996884
