24
-0.00566121 (energy)
C	0.4628696	2.5340879	0.3166313
N	0.3285689	3.6100379	0.5352130
H	1.0800773	4.2344439	0.4143681
H	-0.5424726	3.9432967	0.8506088
N	-0.6174708	1.6902501	0.4992762
H	-1.4887482	2.0825023	0.8415657
C	0.6027602	-0.2092943	-0.2255195
C	-0.5425249	0.3345316	0.2295476
H	-1.4489897	-0.2340570	0.4081445
H	0.7317780	-1.2571217	-0.4561065
C	2.9644677	0.4138283	-0.8468503
N	1.6896702	0.6488452	-0.4076204
H	3.3103424	-0.5673368	-1.1327689
C	3.5902846	1.6434104	-0.8180056
N	2.7417365	2.6323027	-0.3743245
C	1.6140424	2.0070283	-0.1372283
C	4.5724554	0.9680720	-4.3635417
H	5.3183513	1.6251368	-3.9070915
H	4.9907759	-0.0395512	-4.4271517
H	3.6743247	0.9748042	-3.7410636
C	4.2428813	1.4699364	-5.7364823
O	4.7256518	2.4720873	-6.2381195
O	3.3406926	0.6924589	-6.3752349
H	3.0429769	-0.0735661	-5.8492419
