24
-0.00420543 (energy)
C	0.4967323	1.2209586	-0.5196727
N	-0.2275904	1.8304450	-1.0918319
H	0.0515282	2.6910243	-1.4800939
H	-1.1514001	1.5123498	-1.2128285
N	0.0649350	0.0183923	0.0094227
H	-0.9022298	-0.2555492	-0.1309216
C	2.1984281	-0.4738077	0.9196470
C	0.9108205	-0.8155975	0.7202547
H	0.4680710	-1.7341635	1.0904944
H	2.9126613	-1.0752806	1.4635766
C	3.8471455	1.3626663	0.4086774
N	2.6275674	0.7420156	0.3824781
H	4.7073158	0.9359511	0.9006984
C	3.6699022	2.5398148	-0.2893607
N	2.3778353	2.6666976	-0.7468089
C	1.7796782	1.5771919	-0.3296017
C	-0.6107599	5.0964904	0.8892212
H	-1.3532602	4.3540711	0.5827107
H	-0.0661611	4.7060226	1.7525229
H	0.0689845	5.2757536	0.0525760
C	-1.3068711	6.3705335	1.2602954
O	-2.5138523	6.5393006	1.1992390
O	-0.4523563	7.3324799	1.6736767
H	0.4825660	7.0532087	1.6686513
