24
-0.0179096 (energy)
C	-1.2106162	0.4749860	-1.9619376
N	-2.2895154	0.5633668	-1.7346749
H	-2.6108416	0.4323961	-0.8133457
H	-2.9284779	0.7730013	-2.4537225
N	-0.8001555	0.6662064	-3.2686562
H	-1.5016507	0.8645150	-3.9748618
C	1.4818079	0.3329872	-2.7171405
C	0.5325433	0.5948187	-3.6362986
H	0.7427373	0.7609908	-4.6875233
H	2.5382789	0.2629491	-2.9332931
C	1.7602363	-0.1352219	-0.2563979
N	1.0600294	0.1409912	-1.3994995
H	2.8331805	-0.2478666	-0.2435403
C	0.8095031	-0.2155513	0.7405998
N	-0.4577912	0.0025121	0.2494700
C	-0.2752963	0.2126198	-1.0317119
C	0.6951758	2.4093862	3.8033871
H	1.4659911	3.1680963	3.9666184
H	0.9049834	1.8996034	2.8597532
H	0.7186520	1.7034949	4.6372513
C	-0.6471023	3.0721445	3.7363507
O	-0.8310845	4.2710140	3.8700515
O	-1.6522251	2.1969391	3.5123769
H	-1.3534402	1.2718941	3.4280156
