24
-0.0173986 (energy)
C	0.1156534	2.3486083	0.1051942
N	0.9754960	2.6626135	0.7261245
H	1.5511292	1.9848429	1.1486464
H	1.1651785	3.6198656	0.8562708
N	-0.6682533	3.3316821	-0.4706640
H	-0.4386001	4.3039962	-0.2917425
C	-2.0745986	1.7440562	-1.5309463
C	-1.7500563	3.0268742	-1.2788334
H	-2.2957773	3.8750564	-1.6783877
H	-2.9037423	1.4344888	-2.1509842
C	-1.3422937	-0.6093980	-1.0046583
N	-1.2785521	0.7565347	-0.9460970
H	-2.0966086	-1.1334830	-1.5707038
C	-0.2930805	-1.0549370	-0.2268424
N	0.4181238	-0.0064517	0.3113602
C	-0.1948376	1.0624657	-0.1364908
C	1.1907304	-3.0925811	2.4176981
H	2.2253374	-3.0071298	2.7622676
H	0.6375256	-2.2147876	2.7608975
H	1.1901203	-3.1470923	1.3262810
C	0.5785613	-4.3353551	2.9888499
O	1.1685800	-5.1275766	3.7052831
O	-0.7126373	-4.4977818	2.6243715
H	-1.0488367	-3.7852628	2.0487118
