24
-0.0173593 (energy)
C	-0.9748626	0.7520715	-2.0060992
N	-0.5858469	1.7534621	-2.2694744
H	0.0653105	2.1990891	-1.6806942
H	-0.8907535	2.1991369	-3.0926725
N	-1.8880534	0.1604165	-2.8596702
H	-2.1813210	0.6697279	-3.6871630
C	-2.0351322	-1.7944322	-1.5256926
C	-2.4089754	-1.0990016	-2.6170809
H	-3.1175893	-1.4672125	-3.3513527
H	-2.4005953	-2.7799583	-1.2748275
C	-0.5434791	-1.6243211	0.4986664
N	-1.1125902	-1.1907539	-0.6681226
H	-0.7680757	-2.5855393	0.9341884
C	0.2915414	-0.6004246	0.8970728
N	0.2566303	0.4536512	0.0124823
C	-0.5910091	0.0710488	-0.9116387
C	1.1392940	2.9526339	3.1562534
H	1.8956719	3.5932211	3.6188355
H	1.4195303	2.7828379	2.1136702
H	1.0998782	2.0080640	3.7043384
C	-0.1940898	3.6333787	3.2204927
O	-0.3875515	4.7226589	3.7353276
O	-1.1795427	2.9093072	2.6451462
H	-0.8753044	2.0585596	2.2766831
