24
-0.0173513 (energy)
C	0.0180815	-0.6481004	0.1599577
N	-0.0118684	0.4253930	-0.1049912
H	0.8152956	0.8913524	-0.3656307
H	-0.8656863	0.9149112	-0.0801738
N	-1.1656799	-1.2655546	0.5205348
H	-2.0155978	-0.7113191	0.5452490
C	-0.1072195	-3.3660454	0.8208036
C	-1.2216727	-2.6098344	0.8462949
H	-2.2012966	-2.9911495	1.1142575
H	-0.0780204	-4.4188648	1.0626239
C	2.3612805	-3.2143779	0.3355195
N	1.0846373	-2.7358473	0.4557485
H	2.6180646	-4.2440048	0.5304402
C	3.1193480	-2.1301505	-0.0570812
N	2.3508666	-0.9951419	-0.1835195
C	1.1401752	-1.3890161	0.1294756
C	5.9842246	0.7937001	-3.2646257
H	6.6255644	1.4241480	-3.8872495
H	6.5695576	-0.0622525	-2.9195557
H	5.6298231	1.3860043	-2.4174312
C	4.8174058	0.3185461	-4.0759303
O	4.6202291	0.6202301	-5.2417441
O	3.9884363	-0.4885634	-3.3775004
H	4.2738746	-0.6393250	-2.4566891
