24
-0.0170031 (energy)
C	0.1051732	-1.6090016	1.7147755
N	-0.7139078	-1.4495040	2.4408264
H	-1.3449754	-0.7043811	2.3151415
H	-0.8118755	-2.0526613	3.2127414
N	0.9701680	-2.6669072	1.9273228
H	0.8344136	-3.2490795	2.7475632
C	2.2091342	-2.1926621	-0.0380311
C	2.0087707	-2.9507928	1.0572329
H	2.6262339	-3.8032070	1.3199063
H	2.9980773	-2.3564888	-0.7580922
C	1.2671083	-0.1886046	-1.2414997
N	1.3317498	-1.1260114	-0.2463341
H	1.9622165	-0.1660270	-2.0663502
C	0.1906038	0.6113529	-0.9166043
N	-0.4130268	0.1976842	0.2492872
C	0.2913665	-0.8420350	0.6257054
C	1.8592459	3.7676041	-1.9487767
H	2.1774064	4.6413567	-1.3727802
H	2.5963446	2.9729952	-1.8086874
H	0.8772000	3.4513161	-1.5886228
C	1.7747831	4.1335005	-3.3994450
O	2.0060070	5.2460951	-3.8440599
O	1.4082171	3.0936155	-4.1809111
H	1.2557541	2.2670179	-3.6853418
