24
-0.0142658 (energy)
C	-2.4906984	-0.6472893	-0.3369611
N	-3.4111912	-1.1346118	-0.7093759
H	-4.2903427	-0.8523166	-0.3678301
H	-3.3513391	-1.8506532	-1.3823927
N	-1.2756693	-1.0728937	-0.8420567
H	-1.2686047	-1.8258058	-1.5226606
C	-0.0611745	0.4971720	0.4550393
C	-0.0774737	-0.5033001	-0.4467925
H	0.8155569	-0.9136561	-0.9061099
H	0.8353038	0.9866228	0.8079173
C	-1.6095702	1.8940802	1.8703535
N	-1.2919087	0.9218733	0.9608650
H	-0.8638345	2.5081878	2.3507843
C	-2.9851546	1.8577406	1.9742660
N	-3.5286018	0.8927079	1.1568481
C	-2.4920552	0.3508635	0.5645202
C	-3.8755063	4.4429296	-0.3819577
H	-4.6452588	3.8037750	-0.8240032
H	-4.0298933	5.4657820	-0.7344918
H	-3.9627588	4.3921278	0.7061459
C	-2.5230840	3.9569453	-0.8064878
O	-2.3324226	2.9826098	-1.5159468
O	-1.5171132	4.7144863	-0.3160035
H	-1.8219316	5.4589558	0.2362177
