11
-0.00502635 (energy)
C	-1.3835465	-0.0090509	0.0410855
H	-1.8508262	0.2012684	-0.9136373
C	-2.0592180	-0.2563506	1.1636794
H	-3.1448256	-0.2551704	1.1583224
H	-1.5643469	-0.4637814	2.1053045
O	-0.0222540	0.0114434	-0.0519509
H	0.3531867	-0.1816147	0.8244986
C	3.7001791	-0.0836309	0.1063262
H	3.0201643	0.4530281	-0.5743414
H	4.7630983	-0.0789392	-0.1833923
O	3.3012159	-0.6477108	1.1174548
