11
-0.00360679 (energy)
C	-0.5935649	-0.0507631	-1.2494297
H	-1.3443033	-0.8261247	-1.3457958
C	-0.2570851	0.7875029	-2.2302446
H	-0.7441871	0.7182420	-3.1979782
H	0.4985168	1.5542628	-2.1048348
O	-0.0394370	-0.0420000	-0.0024098
H	0.6258942	0.6665707	0.0382459
C	3.8437110	0.2030594	0.3394949
H	3.3696286	-0.4577322	-0.4036954
H	4.6295468	-0.2622115	0.9557262
O	3.5188827	1.3763975	0.4717940
