11
-0.00340145 (energy)
C	-0.1420311	0.5244574	-1.3058058
H	-1.0031566	1.0910053	-1.6398214
C	-0.0067142	0.0294152	-0.0751437
H	-0.7869998	0.1838646	0.6636889
H	0.8669451	-0.5341066	0.2310345
O	0.7813889	0.3831613	-2.3005539
H	1.5335921	-0.1294441	-1.9573090
C	4.5623041	0.9999575	0.1986733
H	4.6083390	1.8069039	0.9473051
H	5.2432064	1.1099004	-0.6604196
O	3.8048567	0.0445688	0.3137585
