11
-0.00338898 (energy)
C	-1.3701146	-0.0279113	0.1948785
H	-1.7197641	0.6731291	0.9434556
C	-2.1679581	-0.8502476	-0.4871152
H	-3.2386367	-0.8445725	-0.3077021
H	-1.7895511	-1.5417269	-1.2309210
O	-0.0158951	0.0381423	0.0402193
H	0.2522670	-0.6053466	-0.6383100
C	3.5563165	0.0025439	-0.1605204
H	3.8773353	-0.7846247	0.5402248
H	3.6181879	1.0335482	0.2228307
O	3.1573523	-0.2515118	-1.2901319
