11
-0.00334052 (energy)
C	0.0534999	0.0629917	-0.0147542
H	-0.6370138	-0.7500320	0.1756753
C	-0.3230790	1.3083853	-0.3064555
H	-1.3775789	1.5596618	-0.3653106
H	0.3909474	2.1022216	-0.4923939
O	1.3510017	-0.3485770	0.0816463
H	1.9329730	0.4104285	-0.0961490
C	5.0101949	-1.5426373	0.9108983
H	5.4420069	-2.4461152	0.4515537
H	4.8218424	-1.6046741	1.9946098
O	4.7565114	-0.5365809	0.2603338
