11
-0.00329841 (energy)
C	0.0038500	0.8860021	1.1024258
H	-0.8934565	1.2664970	1.5758650
C	0.0018107	0.0507137	0.0631012
H	-0.9377061	-0.2900411	-0.3608896
H	0.9161463	-0.3137979	-0.3904454
O	1.1303267	1.3685047	1.7027878
H	1.9078764	1.0022449	1.2470892
C	3.9948643	-1.5797746	0.4013007
H	4.7675036	-2.3649247	0.4185969
H	3.1165828	-1.7637634	1.0404607
O	4.1049281	-0.5699437	-0.2827069
