11
-0.00324111 (energy)
C	-0.6402468	-0.0259191	-1.2269405
H	-0.3062160	-0.8252536	-1.8777614
C	-1.5792737	0.8613191	-1.5570063
H	-2.0602889	0.8102961	-2.5289090
H	-1.8935584	1.6511501	-0.8847156
O	0.0195901	-0.0433596	-0.0325770
H	-0.3109085	0.6881485	0.5170206
C	3.0670656	0.0759799	-0.0373045
H	2.8543769	-0.8988151	-0.5044978
H	3.1711364	0.0642519	1.0594123
O	3.1802485	1.1039264	-0.6932423
