11
-0.00323465 (energy)
C	-0.1367992	0.0286435	1.3771116
H	0.0094173	-0.9346194	1.8512692
C	-0.4226325	1.1500988	2.0393379
H	-0.5225043	1.1348107	3.1202475
H	-0.5636846	2.1004559	1.5378317
O	0.0082523	-0.0523862	0.0226422
H	-0.1309700	0.8314075	-0.3593482
C	3.0630099	0.0901904	-0.0412276
H	3.5004558	-0.5336251	-0.8369830
H	2.8479323	-0.4301126	0.9057583
O	2.8313027	1.2823416	-0.1987907
