11
-0.00320922 (energy)
C	-0.2420194	0.7655040	-1.1275642
H	-0.7103059	1.7195156	-0.9162595
C	0.0797825	0.3477129	-2.3522277
H	-0.1251228	0.9753637	-3.2139945
H	0.5479924	-0.6127496	-2.5335398
O	-0.0248880	0.0500893	0.0140263
H	0.3949904	-0.7949537	-0.2226072
C	3.3069307	-0.1859043	0.1401026
H	3.1494590	0.2051927	-0.8777270
H	3.4409332	0.5748675	0.9256122
O	3.3313853	-1.3861266	0.3821920
