11
-0.00318482 (energy)
C	0.0712624	-0.0286501	0.0338929
H	-0.8485088	0.3411320	-0.4035569
C	0.6091308	0.4510919	1.1557002
H	0.1234092	1.2616118	1.6902148
H	1.5313728	0.0610027	1.5702876
O	0.6058932	-1.0428084	-0.7062731
H	1.4265103	-1.3423028	-0.2781590
C	3.9537812	0.2667150	-1.5452200
H	4.0993435	1.2225047	-2.0734329
H	3.6189284	-0.5756201	-2.1713998
O	4.1510165	0.1484807	-0.3423660
