11
-0.00312409 (energy)
C	-0.2925380	-1.2798874	0.4384981
H	-1.0587742	-1.3155442	1.2038025
C	0.3243196	-2.3563894	-0.0499040
H	0.0688725	-3.3452661	0.3181222
H	1.0879308	-2.2901803	-0.8161266
O	-0.0409593	0.0009562	0.0405773
H	0.6500531	-0.0151749	-0.6439903
C	3.8971904	0.4613667	-0.3320142
H	4.8153068	-0.1333953	-0.2014319
H	3.4140430	0.7993515	0.5986257
O	3.4439498	0.7289340	-1.4377807
