11
-0.00280706 (energy)
C	-0.5008778	1.2755651	-0.1950024
H	0.0344826	1.8457351	-0.9449194
C	-1.5474308	1.7398733	0.4884090
H	-1.9131020	2.7461617	0.3088485
H	-2.0638692	1.1460331	1.2335452
O	0.0302108	0.0280864	-0.0402933
H	-0.4794668	-0.4457514	0.6394842
C	4.0795585	-0.2328409	0.1689405
H	3.0008270	-0.0919159	0.3427504
H	4.3744502	-0.3931168	-0.8803957
O	4.8963171	-0.2126779	1.0812110
