11
-0.00280415 (energy)
C	-0.5008778	1.2864233	0.1010316
H	0.0344826	2.0125889	-0.4990957
C	-1.5474308	1.5826429	0.8723209
H	-1.9131020	2.6033637	0.9269784
H	-2.0638692	0.8345211	1.4623954
O	0.0302108	0.0365353	-0.0328264
H	-0.4794668	-0.5798412	0.5209784
C	4.1032533	-0.2631752	0.1311546
H	4.5006282	-0.1612267	-0.8913086
H	3.0052511	-0.2398149	0.2183402
O	4.8332803	-0.3937478	1.1057059
