11
-0.00280411 (energy)
C	-0.2668197	-0.7682127	1.1201015
H	0.4060264	-0.5817714	1.9487135
C	-1.2655823	-1.6509320	1.1545429
H	-1.4453304	-2.2364075	2.0509150
H	-1.9234333	-1.8164028	0.3093008
O	0.0371496	0.0118642	0.0424764
H	-0.5895902	-0.1882926	-0.6741306
C	3.4644611	0.0078222	-0.1530542
H	3.1901772	-0.3080837	0.8661136
H	2.8839080	0.8504386	-0.5613577
O	4.3551840	-0.5409881	-0.7895750
