11
-0.00444395 (energy)
C	0.1488845	0.3878477	-1.3519485
H	-0.5873067	0.9629669	-1.9008933
C	0.0099374	0.0214769	-0.0774397
H	-0.8822338	0.2986275	0.4755449
H	0.7639114	-0.5543496	0.4465162
O	1.2307323	0.0880571	-2.1277861
H	1.8626798	-0.4263547	-1.5963598
C	3.7020110	1.2042732	1.2164719
H	2.6939106	1.6394262	1.1264336
H	4.4088096	1.7695975	1.8446439
O	4.0159762	0.1617947	0.6557551
