11
-0.00272717 (energy)
C	-0.4841164	-0.5871067	1.1562473
H	-0.1218463	-0.1242470	2.0665227
C	-1.3190163	-1.6263957	1.1292819
H	-1.6784735	-2.0614106	2.0567118
H	-1.6649642	-2.0691676	0.2025372
O	0.0207710	0.0264690	0.0468300
H	-0.3296500	-0.4200815	-0.7432262
C	3.0177744	-0.0836859	0.0045131
H	2.9984480	0.4042542	-0.9830457
H	3.1318336	0.5930804	0.8663332
O	2.9190634	-1.2972859	0.1355471
