11
-0.00270939 (energy)
C	-0.7085385	-0.3595964	-1.1334171
H	-0.3388785	-1.2578268	-1.6136396
C	-1.7477263	0.3489779	-1.5760431
H	-2.2800488	0.0366689	-2.4691665
H	-2.0955345	1.2445340	-1.0744542
O	0.0216798	-0.0479771	-0.0235218
H	-0.3440740	0.7614310	0.3733078
C	3.6569244	0.1442701	0.1839878
H	2.9416578	0.2352596	-0.6489863
H	3.7202548	-0.8526288	0.6486788
O	4.3362384	1.0882004	0.5677418
