11
-0.00266078 (energy)
C	0.0570009	-0.0436011	0.0435629
H	-0.6786995	0.5191505	-0.5186965
C	-0.1568673	-0.5420920	1.2616244
H	-1.1147546	-0.3946585	1.7507961
H	0.5986856	-1.1016501	1.8007137
O	1.2242673	-0.1761809	-0.6507745
H	1.8525141	-0.6856470	-0.1102736
C	5.2050316	-0.5066774	-1.4515409
H	5.0108055	-1.5579226	-1.7177946
H	5.8342414	0.0543080	-2.1608689
O	4.7517920	0.0041790	-0.4350083
