11
-0.0026536 (energy)
C	-1.2815171	-0.5228118	-0.0187764
H	-1.3876403	-1.4409159	0.5468231
C	-2.2792315	0.0659289	-0.6789709
H	-3.2721007	-0.3730799	-0.6715048
H	-2.1434094	0.9850571	-1.2369479
O	-0.0028678	-0.0486865	0.0307651
H	0.0455148	0.7726900	-0.4882636
C	3.2747523	0.0155701	-0.1135988
H	2.8644372	-0.6853346	0.6307838
H	4.0755745	0.6791193	0.2499149
O	2.8678638	0.0545042	-1.2680098
