11
-0.00264754 (energy)
C	0.2842279	1.3253037	-0.2806340
H	-0.4325164	1.7954490	-0.9434470
C	1.3481530	1.9468789	0.2288893
H	1.5396286	2.9876606	-0.0133593
H	2.0489276	1.4505886	0.8900955
O	-0.0395745	0.0225416	-0.0353670
H	0.6280765	-0.3577511	0.5612992
C	4.8980883	-0.0054525	-1.1165660
H	5.2524459	-0.7105960	-1.8852887
H	5.2299560	1.0377930	-1.2400917
O	4.1830522	-0.3577323	-0.1868557
