11
-0.00438029 (energy)
C	-0.2574674	-0.1843891	-1.3474724
H	-0.9318441	-1.0066274	-1.5553673
C	0.2854389	0.5906064	-2.2869091
H	0.0606157	0.4164274	-3.3346161
H	0.9575058	1.4068858	-2.0490086
O	-0.0360491	-0.0442442	-0.0082464
H	0.5721248	0.7021875	0.1308764
C	4.3241636	0.2721547	0.5500246
H	4.1228297	-0.5460022	1.2598241
H	5.2954159	0.2233288	0.0322978
O	3.5219327	1.1755400	0.3498758
