11
-0.00262716 (energy)
C	-0.6890977	-0.0305089	-1.2347351
H	-1.3378129	0.7634615	-1.5852486
C	-0.0388190	-0.0031742	-0.0709924
H	-0.1419093	0.8507138	0.5914437
H	0.6041209	-0.8129197	0.2538508
O	-0.6231260	-1.0565749	-2.1319693
H	-0.0325001	-1.7434568	-1.7773635
C	4.0196911	-0.1531884	0.3547903
H	4.9378075	0.0422500	0.9315029
H	3.5365437	0.7344549	-0.0838598
O	3.5664504	-1.2817332	0.2109207
