11
-0.00251693 (energy)
C	0.8499451	0.9377071	-0.6313921
H	0.6690272	2.0059778	-0.6434949
C	0.0496154	0.0524956	-0.0365984
H	-0.8469312	0.3863569	0.4765436
H	0.2561695	-1.0114126	-0.0407721
O	1.9956344	0.6158997	-1.2992461
H	2.1174661	-0.3485776	-1.2627549
C	5.5023067	0.5652261	-0.3137461
H	5.7304456	1.5993145	-0.0098629
H	6.0652051	0.1908380	-1.1836513
O	4.6780657	-0.1221826	0.2760291
