11
-0.00251629 (energy)
C	0.2831604	1.2703238	-0.4712412
H	0.3066087	2.0286337	0.3023843
C	0.5036127	1.5159030	-1.7631383
H	0.7229942	2.5254500	-2.0966956
H	0.4735994	0.7364344	-2.5155416
O	0.0006346	0.0383177	0.0430865
H	-0.0100718	-0.6081289	-0.6838132
C	3.3295672	-0.2628195	0.0295463
H	3.1959315	0.5915447	-0.6530477
H	3.4434741	-0.0061193	1.0948566
O	3.3501241	-1.4205331	-0.3692211
