11
-0.00429462 (energy)
C	-0.1543424	1.0847790	0.8943098
H	-1.0901111	1.3438948	1.3752216
C	-0.0072962	0.0624571	0.0510176
H	-0.8552175	-0.5704781	-0.1918741
H	0.9420919	-0.1731879	-0.4155832
O	0.8491205	1.9341189	1.2602016
H	1.6665208	1.6648822	0.8065945
C	4.5088835	-0.7339610	0.9330949
H	5.3172035	-1.4819458	0.9036188
H	4.2729201	-0.3289273	1.9301028
O	3.9124912	-0.3766004	-0.0750462
