11
-0.00243446 (energy)
C	0.0445153	-0.0286935	-0.0651379
H	-0.5300359	0.3416489	0.7755864
C	-0.4626691	-0.7832296	-1.0405075
H	-1.5114383	-1.0632101	-1.0241380
H	0.1368269	-1.1396380	-1.8700617
O	1.3467182	0.3737983	0.0016525
H	1.8224898	0.0198645	-0.7695565
C	4.7269794	1.5445653	0.9701332
H	4.8620357	2.0460341	1.9417402
H	3.8931901	1.9184482	0.3546961
O	5.4550389	0.6324660	0.5989958
