11
-0.00240611 (energy)
C	-0.1804889	-0.4725508	-1.2884449
H	0.2746547	-1.4394468	-1.4674323
C	-0.8560970	0.2155967	-2.2092670
H	-0.9776866	-0.1865271	-3.2103095
H	-1.3010959	1.1816838	-2.0013382
O	0.0251292	-0.0514514	-0.0068094
H	-0.3988184	0.8165705	0.1080705
C	3.1053149	0.0940116	-0.0200473
H	3.4474773	-0.8545524	-0.4637617
H	2.8291049	0.0474087	1.0454536
O	3.0365905	1.1309653	-0.6679230
