11
-0.00239666 (energy)
C	1.0864145	-0.6566782	0.5517681
H	1.3636648	-0.2941306	1.5345049
C	1.7190540	-1.6425063	-0.0852693
H	2.5680346	-2.1350923	0.3785892
H	1.4190029	-1.9845485	-1.0689152
O	0.0126031	0.0211762	0.0521327
H	-0.2000204	-0.3360815	-0.8273837
C	4.7976780	0.8023685	0.5661938
H	5.7657293	1.2527655	0.2946232
H	4.2958085	0.2366233	-0.2349400
O	4.3119136	0.9225479	1.6839275
