11
-0.00238627 (energy)
C	-0.0417638	0.6536021	1.2194388
H	-0.1511552	-0.0108987	2.0682923
C	0.0463013	1.9804505	1.3175418
H	0.0098326	2.4589432	2.2913429
H	0.1553145	2.6206947	0.4499093
O	-0.0058464	-0.0375713	0.0433510
H	0.0927863	0.5962829	-0.6880118
C	3.5201948	0.0541098	-0.1556286
H	4.3809659	-0.3760915	-0.6920344
H	2.9028756	-0.6652232	0.4058276
O	3.2665107	1.2519005	-0.1817188
