11
-0.00224865 (energy)
C	-0.5500597	-0.2962787	-1.2351615
H	-0.1384435	-1.1869246	-1.6949463
C	-1.4986843	0.4589261	-1.7898538
H	-1.9071046	0.1957640	-2.7606846
H	-1.8917556	1.3454600	-1.3059785
O	0.0236004	-0.0477082	-0.0221818
H	-0.3745558	0.7571642	0.3520414
C	3.8040878	0.2006311	0.1021530
H	2.9515779	-0.3254634	0.5606100
H	4.7801760	-0.3005878	0.2010839
O	3.6753374	1.2710710	-0.4786399
