11
-0.00425688 (energy)
C	0.1563708	-1.3547130	0.3750439
H	-0.6168380	-2.1058626	0.2654873
C	0.0104371	-0.0772422	0.0219459
H	-0.9265945	0.2670505	-0.4046782
H	0.8023223	0.6526593	0.1433719
O	1.2926165	-1.8806320	0.9177666
H	1.9563376	-1.1738472	0.9972688
C	5.1672070	0.6758517	-0.8731771
H	6.1489935	0.5280225	-0.3957118
H	5.1949269	1.0292277	-1.9163036
O	4.1153119	0.4616778	-0.2837832
