11
-0.00220147 (energy)
C	-0.3166866	-1.2508659	0.5791384
H	-1.3221743	-1.6489836	0.6467906
C	-0.0165885	-0.0718438	0.0334696
H	-0.8020726	0.5543512	-0.3781960
H	0.9995892	0.3010801	-0.0203203
O	0.5983666	-2.1060078	1.1209898
H	1.4828731	-1.7094788	1.0385031
C	3.9847089	1.7143546	0.3782807
H	3.7482057	2.6189750	-0.2043509
H	4.2240806	1.8827725	1.4403977
O	3.9817219	0.5962624	-0.1213188
