11
-0.00215594 (energy)
C	-0.0739628	0.0226606	-0.0326171
H	0.8806630	-0.2698161	0.3883662
C	-1.0965050	-0.8135834	-0.2143037
H	-1.0028048	-1.8584601	0.0650288
H	-2.0408065	-0.4923658	-0.6382101
O	-0.0956973	1.3493513	-0.3513843
H	-0.9676817	1.5662818	-0.7241783
C	3.4992283	1.2060835	0.4373679
H	3.4877046	1.5259190	1.4915518
H	3.1786352	1.9661170	-0.2929232
O	3.8452871	0.0808850	0.0998616
