11
-0.0021104 (energy)
C	-0.0659500	0.0395373	0.0336939
H	0.7852552	-0.4707644	-0.4011877
C	-0.9777135	0.7061161	-0.6750137
H	-0.8941644	0.7620814	-1.7559676
H	-1.8197121	1.2075723	-0.2122364
O	-0.0853301	-0.0866115	1.3923344
H	-0.8628426	0.3847733	1.7382557
C	3.3609662	0.8433730	0.8821254
H	3.3256745	0.5818942	1.9517583
H	3.0628364	1.8748820	0.6354195
O	3.7083852	0.0410284	0.0246395
