11
-0.00206605 (energy)
C	-0.1935153	0.5525357	-1.2542834
H	-0.0925547	1.6311247	-1.2773666
C	-0.4773370	-0.1929374	-2.3227503
H	-0.6227245	0.2752338	-3.2913844
H	-0.5723330	-1.2712374	-2.2695753
O	0.0059223	0.0573369	0.0015811
H	-0.0939917	-0.9099773	-0.0250937
C	3.5713232	-0.1425687	0.2592625
H	2.9075228	-0.4226442	-0.5741990
H	3.5994893	0.9313418	0.5035548
O	4.2336463	-0.9697181	0.8731769
