11
-0.0040019 (energy)
C	-1.1609172	0.7444725	0.1183332
H	-1.5530057	1.0966964	-0.8283901
C	-1.7278651	0.9933240	1.2992436
H	-2.6387852	1.5813905	1.3537973
H	-1.3126233	0.6275338	2.2310990
O	-0.0186736	0.0174481	-0.0516909
H	0.2963636	-0.2769145	0.8203717
C	3.2450453	-0.1186811	0.0691001
H	3.2109996	0.9707257	0.2296155
H	3.3047579	-0.4420385	-0.9823894
O	3.2183042	-0.9169024	0.9974678
