11
-0.00203517 (energy)
C	0.0542719	-0.0261270	0.0584792
H	-0.6462067	0.3110901	-0.6963018
C	-0.1493573	0.0921950	1.3708974
H	-1.0613857	0.5491927	1.7422881
H	0.5700238	-0.2546816	2.1035297
O	1.1656554	-0.5844611	-0.5030214
H	1.7638269	-0.8715204	0.2084410
C	4.6761730	-1.1242742	-1.2147065
H	5.1017303	-1.0564944	-2.2286287
H	4.2421503	-2.1006490	-0.9462432
O	4.6849884	-0.1775455	-0.4379401
