11
-0.00195147 (energy)
C	-1.1777538	0.4641080	0.6307589
H	-1.8485498	-0.1683520	1.2000630
C	-0.0671212	0.0280363	0.0355757
H	0.2136606	-1.0183867	0.1043819
H	0.5855397	0.6845628	-0.5279752
O	-1.6127549	1.7571980	0.6010044
H	-0.9828839	2.2862620	0.0816347
C	4.1394640	-0.0562868	-0.3114012
H	4.9477840	-0.6863625	-0.7155728
H	3.9035006	-0.2118692	0.7534327
O	3.5430717	0.7623600	-0.9997852
