11
-0.00192225 (energy)
C	0.0351344	-0.0364402	0.0669744
H	-0.4183396	0.4338873	-0.7974523
C	-0.5844037	-0.2036488	1.2357859
H	-1.6059625	0.1400481	1.3656469
H	-0.1051564	-0.6782290	2.0841245
O	1.3146715	-0.4336518	-0.1922567
H	1.6806062	-0.8485449	0.6079599
C	4.7477810	0.1299290	0.0406014
H	4.4372145	-0.7332851	-0.5694323
H	4.0467638	0.9797471	0.0524342
O	5.8018274	0.1439017	0.6639229
