11
-0.00190687 (energy)
C	0.0448911	-0.0178434	-0.0686607
H	-0.5345103	0.2124587	0.8175307
C	-0.2710918	-0.9788073	-0.9373435
H	-1.1559099	-1.5876139	-0.7791499
H	0.3280405	-1.1867967	-1.8161856
O	1.1336087	0.7971351	-0.1813416
H	1.6219431	0.5555492	-0.9872924
C	4.7450441	0.2292273	-0.2018036
H	5.0279987	-0.8029094	0.0596573
H	4.1750522	0.7745801	0.5672578
O	5.0441259	0.7364617	-1.2755830
