11
-0.00185255 (energy)
C	0.0334524	-0.0401741	0.0656876
H	-0.3983115	0.4783464	-0.7821311
C	-0.5564253	-0.1415412	1.2571890
H	-1.5290769	0.3107219	1.4244634
H	-0.1001217	-0.6670535	2.0879757
O	1.2517314	-0.5733687	-0.2404050
H	1.6001491	-1.0271516	0.5464096
C	4.9320424	0.7958908	-0.2463126
H	4.1564591	0.0891243	-0.5819954
H	4.5609737	1.7126385	0.2391126
O	6.1268356	0.5771078	-0.4023318
