11
-0.00184982 (energy)
C	0.0277082	0.0736479	-0.0292595
H	-0.3299173	-0.8769135	0.3483873
C	-0.7386510	0.9582652	-0.6680492
H	-1.7898331	0.7468886	-0.8380781
H	-0.3529905	1.9022530	-1.0351127
O	1.3557659	0.2486730	0.2311673
H	1.6322180	1.1111072	-0.1240404
C	4.0498132	-1.6418213	-0.3679429
H	3.1010427	-2.1591395	-0.1535890
H	4.7981160	-2.2320696	-0.9205781
O	4.2587109	-0.4877576	-0.0154691
