11
-0.00171803 (energy)
C	-0.0827038	0.0096985	0.0106727
H	0.9847398	-0.1154783	-0.1270777
C	-0.9586220	0.0976511	-0.9907953
H	-0.6174100	0.0445861	-2.0200340
H	-2.0219453	0.2227576	-0.8226443
O	-0.4141465	0.0655198	1.3332545
H	-1.3775006	0.1778630	1.4088782
C	5.0851197	-0.3966631	0.4025101
H	5.5575036	0.0593934	1.2871554
H	5.6748586	-1.1799741	-0.0998720
O	3.9784078	-0.0556829	0.0041884
