11
-0.00395303 (energy)
C	0.0605724	0.0007700	0.0581229
H	-0.7212257	-0.0091678	-0.6920591
C	-0.1666962	0.0181741	1.3718780
H	-1.1846029	0.0231737	1.7492567
H	0.6361972	0.0278199	2.0997872
O	1.3009779	-0.0067663	-0.5106746
H	1.9685832	0.0026242	0.1968606
C	4.8435039	-1.2906121	-1.2778339
H	5.6228149	-1.4358769	-2.0428854
H	4.0444528	-2.0489548	-1.2640672
O	4.8640600	-0.3490768	-0.4950007
