11
-0.00170301 (energy)
C	0.0503453	0.0646966	0.0180993
H	-0.5994531	-0.7703310	-0.2155054
C	-0.3040292	1.3437958	-0.1092991
H	-1.2963520	1.6018729	-0.4660418
H	0.3678966	2.1591173	0.1322572
O	1.2713416	-0.3580112	0.4570516
H	1.8190037	0.4215402	0.6539192
C	5.0117203	-0.2878499	-1.5261821
H	5.9298367	0.2388063	-1.8318401
H	4.5285729	-0.8934199	-2.3095143
O	4.5584797	-0.2056351	-0.3914783
