11
-0.00169697 (energy)
C	-0.0300509	-0.0601213	0.0503017
H	0.3578104	0.7158540	-0.5989333
C	-1.1530606	0.0537216	0.7600871
H	-1.7404598	0.9652763	0.7090569
H	-1.5170883	-0.7400896	1.4019051
O	0.7736199	-1.1629827	0.0485915
H	0.3884283	-1.8304908	0.6422675
C	3.7586979	-1.2098916	-0.3700520
H	4.2591959	-1.9214313	0.3059245
H	3.3973271	-1.6324952	-1.3211425
O	3.6137203	-0.0281335	-0.0834019
