11
-0.00169507 (energy)
C	0.0445153	-0.0359807	-0.0614138
H	-0.5300359	0.4284163	0.7312440
C	-0.4626691	-0.8974872	-0.9437272
H	-1.5114383	-1.1737382	-0.8953285
H	0.1368269	-1.3467601	-1.7268882
O	1.3467182	0.3715173	-0.0412648
H	1.8224898	-0.0686002	-0.7667501
C	4.5621630	1.6228282	-0.3184330
H	4.3595120	2.4731443	0.3521088
H	4.6890781	1.8772649	-1.3828157
O	4.6410839	0.4716917	0.0919266
