11
-0.00166348 (energy)
C	-0.0294094	-0.0521576	-0.0588434
H	0.3501721	0.6210322	0.7006389
C	0.4891757	-1.2530065	-0.3175675
H	1.3442731	-1.6110368	0.2474074
H	0.0880235	-1.9055996	-1.0842367
O	-1.1004486	0.4834414	-0.7132146
H	-1.4067392	-0.1524293	-1.3827259
C	3.5227071	0.7061163	-0.9490792
H	2.7923541	1.5154513	-0.7900424
H	3.6576019	0.3870454	-1.9949057
O	4.1431728	0.1952621	-0.0250720
