11
-0.00165004 (energy)
C	0.0513677	-0.0251960	0.0614362
H	-0.6116265	0.3000041	-0.7315101
C	0.3591884	0.7152230	1.1267684
H	-0.0615525	1.7095883	1.2398546
H	1.0261821	0.3633232	1.9051440
O	0.5284807	-1.2828438	-0.1685165
H	1.1165188	-1.5323172	0.5652172
C	3.9094650	1.2090510	0.4589660
H	3.9721468	1.3767304	1.5460198
H	4.2111378	2.0610165	-0.1710372
O	3.5298188	0.1466055	-0.0172872
