11
-0.00161354 (energy)
C	0.0342930	0.0692087	0.0328941
H	-0.4083211	-0.8240567	-0.3916641
C	1.3158348	0.4076763	-0.1120087
H	1.9861556	-0.2266136	-0.6837781
H	1.7312534	1.3084422	0.3246043
O	-0.8828306	0.7996110	0.7311704
H	-0.4432483	1.5885269	1.0927919
C	4.8645467	-0.2686489	1.4520377
H	3.9574711	-0.1088495	2.0565285
H	5.7963710	-0.4104032	2.0224456
O	4.8387751	-0.2874567	0.2278151
