11
-0.00160853 (energy)
C	1.3803888	0.2898696	-0.1042088
H	2.1665970	-0.4117910	0.1480394
C	0.0786694	0.0180533	-0.0064900
H	-0.2504214	-0.9554866	0.3435000
H	-0.6862815	0.7405288	-0.2662246
O	1.8902322	1.4810351	-0.5324348
H	1.1520011	2.0772380	-0.7467896
C	6.0858478	-0.0397631	-0.7990069
H	5.9328458	0.6072429	-1.6774743
H	7.1316962	-0.3144127	-0.5879983
O	5.1555296	-0.4277575	-0.1035162
