11
-0.00384013 (energy)
C	0.0645902	0.0533353	0.0055983
H	-0.7690639	-0.6350542	-0.0666578
C	0.4516462	0.8620259	-0.9813736
H	-0.0773965	0.8575093	-1.9293542
H	1.2903282	1.5409893	-0.8803592
O	0.6645160	-0.0128970	1.2294836
H	1.4039132	0.6190070	1.2489751
C	3.3266821	-1.4072378	-0.0617108
H	3.2508302	-2.0403366	0.8367121
H	2.8298592	-1.8004727	-0.9629817
O	3.9233926	-0.3378143	-0.0587586
