11
-0.00146944 (energy)
C	-0.8358826	-1.1392547	-0.0612878
H	-0.6579575	-1.9857042	-0.7139331
C	-0.0487947	-0.0645773	-0.0024001
H	0.8329184	0.0008570	-0.6323797
H	-0.2519286	0.7680544	0.6609577
O	-1.9626173	-1.3129103	0.6887160
H	-2.0824150	-0.5323993	1.2569080
C	3.7240462	0.2063907	1.2917051
H	4.5033572	-0.2667766	1.9101859
H	2.9249951	0.7224160	1.8475748
O	3.7446022	0.1617443	0.0680536
