11
-0.00142719 (energy)
C	-0.0223890	0.0712468	0.0383472
H	0.2665821	-0.8483236	-0.4565933
C	-1.1170960	0.7693608	-0.2652315
H	-1.7828193	0.4255040	-1.0508197
H	-1.3811484	1.6869507	0.2474943
O	0.8726695	0.4216124	1.0070098
H	0.5744163	1.2490569	1.4226678
C	4.0768783	0.0634231	-1.1110105
H	3.8517382	-0.3301410	-2.1150774
H	3.3230125	0.7470304	-0.6889639
O	5.0969780	-0.2387887	-0.5045425
