11
-0.00487876 (energy)
C	-0.3487100	0.7324616	1.1215490
H	-0.0723416	1.7785939	1.0640349
C	-0.9676472	0.1809728	2.1659068
H	-1.2259662	0.7867054	3.0290018
H	-1.2320621	-0.8696414	2.1955246
O	0.0157988	0.0551675	-0.0056596
H	-0.2507389	-0.8755484	0.0898212
C	2.8816845	-1.6441984	-0.8958161
H	3.9680900	-1.5277322	-0.7547842
H	2.4161637	-0.9381045	-1.6018456
O	2.2347210	-2.5012868	-0.3071086
