11
-0.00434128 (energy)
C	0.0117371	-0.0767235	0.0319942
H	-0.1397520	0.9135333	-0.3809496
C	-0.9745825	-0.8644906	0.4615325
H	-2.0047876	-0.5260167	0.4096992
H	-0.7928531	-1.8516128	0.8703685
O	1.3341353	-0.4126938	0.0560757
H	1.4223290	-1.3052986	0.4327314
C	3.1111744	-3.3582991	-1.7088038
H	3.5006006	-2.3386854	-1.5589163
H	3.6547232	-3.9705468	-2.4460035
O	2.1390349	-3.7827823	-1.0968416
