11
-0.00135733 (energy)
C	-0.4078256	1.0836281	-0.8122719
H	-0.2360559	2.1241909	-0.5636671
C	-0.0239573	0.0610078	-0.0475501
H	0.4948822	0.2444459	0.8882543
H	-0.2096272	-0.9708551	-0.3220830
O	-1.0638224	0.9543228	-2.0018690
H	-1.1958971	0.0078523	-2.1839156
C	3.5526983	-1.6344983	-1.6733736
H	2.5839379	-1.1960954	-1.3852114
H	4.4282486	-1.2546435	-1.1230302
O	3.6498375	-2.4871097	-2.5470764
