11
0.00112569 (energy)
C	-0.8932443	-1.0477850	0.1422389
H	-0.4879760	-1.8984118	0.6772827
C	-2.1341758	-0.9940501	-0.3426404
H	-2.8076254	-1.8354812	-0.2121295
H	-2.5126675	-0.1288265	-0.8743497
O	0.0240317	-0.0438348	0.0287415
H	-0.3814012	0.6956905	-0.4561476
C	2.7634767	-0.0000827	2.1150608
H	2.4336536	0.8620623	2.7164376
H	2.9713805	-0.9221043	2.6811067
O	2.8905168	0.0622911	0.8986278
