11
-0.00393886 (energy)
C	0.0939441	1.3563417	-0.2597737
H	0.1885189	1.9666391	0.6305481
C	0.0682864	1.8454760	-1.4999333
H	0.1444393	2.9156449	-1.6658040
H	-0.0273684	1.2100595	-2.3726754
O	0.0049257	0.0300837	0.0489469
H	-0.0781749	-0.4774501	-0.7768223
C	3.0682970	-1.0760601	0.3524465
H	3.1136211	0.0214015	0.2672698
H	3.4646406	-1.4962452	1.2905894
O	2.6080885	-1.7817828	-0.5363181
