11
0.00122898 (energy)
C	-0.4001849	-0.6453342	-1.1932112
H	-0.0044441	-1.5966895	-1.5284609
C	-0.0239100	-0.0357452	-0.0686113
H	0.7222742	-0.4910729	0.5751740
H	-0.4375817	0.9166847	0.2417687
O	-1.3280493	-0.1534929	-2.0646197
H	-1.6545856	0.6976121	-1.7249356
C	-0.2948323	3.4825810	-2.5992962
H	-1.3302619	3.6298859	-2.2530042
H	0.4135982	3.1201151	-1.8373903
O	0.0459095	3.7067677	-3.7540145
