11
0.00132271 (energy)
C	-0.7088449	-1.1472486	-0.3119780
H	-1.2373597	-1.5774572	0.5304429
C	-0.7259327	-1.6588761	-1.5431773
H	-1.2933532	-2.5607301	-1.7511852
H	-0.1869444	-1.2063321	-2.3673606
O	-0.0271060	-0.0207739	0.0464629
H	0.4301919	0.3296971	-0.7373992
C	3.3013483	-1.4944298	-2.5659630
H	2.9553860	-0.5665383	-2.0832014
H	4.0661609	-1.3658880	-3.3484556
O	2.8649260	-2.5952205	-2.2536585
