11
0.00137126 (energy)
C	-1.2517144	-0.2295898	-0.5444910
H	-1.9763877	0.5429208	-0.3161143
C	-1.5193386	-1.3093040	-1.2796787
H	-2.5132220	-1.4564593	-1.6909146
H	-0.7735312	-2.0664614	-1.4919679
O	-0.0365326	0.0424801	0.0136347
H	0.5797984	-0.6741892	-0.2163919
C	3.5935543	-2.5967328	0.2958930
H	2.8993218	-3.1798484	-0.3300053
H	3.1351134	-1.7869746	0.8857060
O	4.7946201	-2.8328794	0.3335060
