11
0.00168874 (energy)
C	-0.0270274	-0.0218949	0.0764069
H	0.3218105	0.2606990	-0.9097639
C	-0.9127290	-0.9921708	0.3044505
H	-1.3311311	-1.5545629	-0.5245420
H	-1.2435854	-1.2531786	1.3029452
O	0.5530255	0.7382655	1.0500022
H	0.2119990	0.4509780	1.9146164
C	3.2470342	-1.1074226	0.5785053
H	3.0899421	-1.1731985	1.6669569
H	3.4047005	-2.0680353	0.0626367
O	3.2464363	-0.0379532	-0.0181300
