11
0.00179935 (energy)
C	-0.6108424	0.4697864	-1.1498448
H	-1.0772060	-0.3059467	-1.7455153
C	-0.6131383	1.7628125	-1.4753975
H	-1.1025330	2.0951655	-2.3856767
H	-0.1378872	2.5173310	-0.8594261
O	-0.0239517	-0.0431974	-0.0297555
H	0.3801309	0.6855735	0.4722417
C	3.8896535	-0.3469773	0.6536718
H	4.9501860	-0.2520056	0.9364832
H	3.3776997	0.5968405	0.4069587
O	3.3180313	-1.4293689	0.6160509
