11
0.00209151 (energy)
C	-0.8945901	1.0487166	-0.1259873
H	-1.8041098	0.9191375	0.4485239
C	-0.6401098	2.1115355	-0.8898999
H	-1.3656298	2.9156398	-0.9648061
H	0.2795491	2.2140663	-1.4540785
O	-0.0473800	-0.0094084	0.0314914
H	0.7519544	0.1493178	-0.4997914
C	3.4860852	-1.0592354	-0.7514764
H	3.8062683	-0.0064841	-0.8055940
H	3.0196276	-1.4612001	-1.6650395
O	3.6384956	-1.7373564	0.2568201
