11
0.00227596 (energy)
C	-0.0590134	-0.0478282	0.0357458
H	0.7026626	0.5694823	-0.4256190
C	0.1339185	-1.3115442	0.4148312
H	1.1004438	-1.7835438	0.2677971
H	-0.6475202	-1.9054585	0.8743985
O	-1.2347803	0.6299681	0.1784257
H	-1.8864524	0.0397647	0.5948083
C	1.1907442	3.9097750	0.7050343
H	1.9372473	3.1103713	0.5730565
H	1.5950356	4.9333989	0.7550200
O	-0.0083652	3.6761583	0.7904677
