11
-0.00367219 (energy)
C	0.6943947	-0.2637352	-1.1680028
H	0.0568766	-0.4948146	-2.0131377
C	2.0261336	-0.2308933	-1.2254450
H	2.5371470	-0.4433465	-2.1594165
H	2.6387489	0.0036423	-0.3627295
O	-0.0361978	-0.0119544	-0.0432655
H	0.5744852	0.1897252	0.6866541
C	3.1866584	2.0691078	3.1887887
H	3.4535310	3.1360055	3.1236763
H	3.9642960	1.4097902	3.6063242
O	2.0983020	1.6444020	2.8215771
