11
-0.00255648 (energy)
C	0.6919057	0.6470191	1.0092589
H	1.6527798	0.2007216	1.2364585
C	0.2020665	1.7197470	1.6315281
H	0.7731992	2.2016298	2.4190369
H	-0.7633885	2.1447115	1.3827625
O	0.0506284	-0.0257035	0.0100588
H	-0.8035099	0.4079331	-0.1596409
C	2.5109942	-0.7223570	-2.4068829
H	1.4214275	-0.7012705	-2.5685336
H	2.9093950	0.0697761	-1.7530038
O	3.2311890	-1.5697110	-2.9197664
