11
-0.00252618 (energy)
C	-0.0441417	-0.0535408	0.0472522
H	0.5255880	0.6375011	-0.5626242
C	-1.3388232	-0.3157146	-0.1343277
H	-1.8879195	0.1746879	-0.9321826
H	-1.8833970	-1.0125487	0.4921260
O	0.7288217	-0.6182099	1.0198104
H	0.1785021	-1.2285339	1.5404292
C	1.5237205	1.1646388	3.2936407
H	1.7191399	0.2270473	3.8381264
H	2.4059115	1.6414860	2.8374482
O	0.4008765	1.6447370	3.2016299
