11
-0.00227986 (energy)
C	-0.2739432	0.8469088	-1.0991168
H	-0.8990577	1.7300641	-1.0412508
C	-0.0147825	0.0475568	-0.0638494
H	-0.4389528	0.2638653	0.9117858
H	0.6149657	-0.8301161	-0.1515424
O	0.2115922	0.6584170	-2.3604333
H	0.7646767	-0.1418732	-2.3653457
C	4.0434677	0.1046597	1.2198762
H	5.0846179	0.0625727	1.5775999
H	3.5441811	1.0810189	1.3256659
O	3.4788432	-0.8688246	0.7368996
