11
-0.00155299 (energy)
C	-1.3034366	-0.1964837	0.5126443
H	-1.7508059	-1.1706126	0.6708016
C	-0.0748058	-0.0096724	0.0294525
H	0.5437731	-0.8625295	-0.2324037
H	0.3469267	0.9776972	-0.1182827
O	-2.1538443	0.8093735	0.8693669
H	-1.7124504	1.6617513	0.7112069
C	3.5240056	1.1055270	0.9247557
H	4.2906743	0.7246982	1.6182396
H	3.4433520	0.5698140	-0.0345474
O	2.8091817	2.0605433	1.2017205
