19
-0.00417089 (energy)
C	-2.6314196	-1.7357735	0.4665367
H	-3.5795923	-1.7621453	0.9988097
C	-2.3024183	-2.7962750	-0.3761686
H	-2.9873604	-3.6315073	-0.4935152
C	-1.0961826	-2.7799539	-1.0662055
H	-0.8332373	-3.6020177	-1.7258908
C	-0.2219758	-1.7027477	-0.9117300
H	0.7153209	-1.7066682	-1.4616653
C	-0.5347280	-0.6303530	-0.0663714
N	0.3567822	0.4248520	0.0418637
H	0.1716847	1.2007825	0.6596732
H	1.2379748	0.4016810	-0.4510682
C	-2.1541754	0.4757054	1.5476887
H	-3.1331819	0.2964031	2.0047663
H	-2.2172763	1.4170708	0.9924456
H	-1.4260152	0.5772365	2.3589438
C	-1.7571949	-0.6465951	0.6289436
Br	4.2011602	0.3075483	-0.0151040
H	3.9266436	-1.0810811	0.3034237
