19
-0.00336879 (energy)
C	-0.5050261	-2.0518694	1.3002599
H	-0.7318240	-2.5002175	2.2649298
C	-0.3047805	-0.6742727	1.2282418
H	-0.3760746	-0.0658157	2.1255858
C	-0.0123010	-0.0831153	0.0049631
H	0.1464662	0.9896397	-0.0590952
C	0.0793122	-0.8714344	-1.1433545
H	0.3115386	-0.3914200	-2.0902580
C	-0.1224626	-2.2566871	-1.0900866
N	-0.0044337	-3.0002702	-2.2533218
H	-0.1664958	-3.9961383	-2.2526645
H	0.1847614	-2.5440016	-3.1342550
C	-0.6378825	-4.3360136	0.2744312
H	-0.8556837	-4.6257065	1.3079512
H	0.2572536	-4.8826255	-0.0392442
H	-1.4896332	-4.6448588	-0.3402199
C	-0.4152701	-2.8541333	0.1490558
Br	3.9208346	0.5889704	0.0648270
H	2.9590466	-0.3339262	-0.5081797
