19
-0.00327582 (energy)
C	-0.9455604	-2.3234566	1.3740680
H	-1.3208091	-3.2024456	1.8933061
C	-1.8503253	-1.4943285	0.7130046
H	-2.9110427	-1.7295778	0.7210842
C	-1.3903266	-0.3655808	0.0453581
H	-2.0893284	0.2862721	-0.4709731
C	-0.0263644	-0.0688337	0.0406949
H	0.3139160	0.8195912	-0.4845476
C	0.8973678	-0.8927996	0.6966481
N	2.2393986	-0.5484145	0.6788978
H	2.9322395	-1.1330307	1.1218573
H	2.5516238	0.2636696	0.1660099
C	1.3692542	-2.9552573	2.1019086
H	0.8349843	-3.7892625	2.5693634
H	1.8943787	-2.4141877	2.8955920
H	2.0982632	-3.3810065	1.4048118
C	0.4301709	-2.0330820	1.3746122
Br	5.2897925	1.0889447	-0.7352890
H	4.8189668	1.4380296	-2.0625319
