19
-0.00314386 (energy)
C	-1.1678596	-2.3832752	1.0661619
H	-1.6129230	-3.2822959	1.4865448
C	-1.0581048	-1.2480522	1.8675858
H	-1.4138968	-1.2693875	2.8939804
C	-0.4907158	-0.0902315	1.3489889
H	-0.4003742	0.7981238	1.9676787
C	-0.0343333	-0.0707973	0.0299700
H	0.4088006	0.8429717	-0.3568475
C	-0.1399262	-1.2011813	-0.7907356
N	0.3425338	-1.1395950	-2.0881955
H	0.2604618	-1.9286942	-2.7115769
H	0.7282991	-0.2789415	-2.4494156
C	-0.8493690	-3.6214669	-1.0908581
H	-1.3161277	-4.4330665	-0.5225576
H	0.1351132	-3.9716949	-1.4173248
H	-1.4782089	-3.4287965	-1.9661289
C	-0.7114487	-2.3732528	-0.2637039
Br	3.6162685	0.3668870	-1.5124514
H	3.3157152	0.1462470	-0.1102757
