19
-0.00313422 (energy)
C	-1.4515921	1.3506625	-0.1278233
H	-1.8765141	1.0136329	-1.0706348
C	-2.0257959	2.4451818	0.5166727
H	-2.8832575	2.9476447	0.0775604
C	-1.4981475	2.8896573	1.7230933
H	-1.9409109	3.7410818	2.2321616
C	-0.3974383	2.2381075	2.2820171
H	-0.0006348	2.5986135	3.2272957
C	0.1944483	1.1389664	1.6463800
N	1.2748934	0.5138326	2.2478856
H	1.7378156	-0.2653884	1.8045624
H	1.6552236	0.8710154	3.1126332
C	0.2434992	-0.4887208	-0.3028233
H	-0.2972454	-0.6977152	-1.2320378
H	0.1885761	-1.3876182	0.3196012
H	1.2871170	-0.2896545	-0.5672000
C	-0.3424716	0.6881852	0.4270912
Br	4.2751095	-0.4811732	-0.3987082
H	4.2855540	-0.6714206	-1.8370432
