19
-0.00303344 (energy)
C	0.1868602	-0.8792144	-1.1224389
H	-0.5121325	-0.7552398	-1.9465025
C	0.0609007	-0.0580337	-0.0031293
H	-0.7251338	0.6909973	0.0372604
C	0.9434041	-0.2024204	1.0607137
H	0.8508740	0.4327933	1.9371014
C	1.9497338	-1.1680162	1.0024139
H	2.6285295	-1.2677036	1.8451880
C	2.0932591	-1.9993503	-0.1159597
N	3.0967155	-2.9548659	-0.1212334
H	3.2409511	-3.5531476	-0.9207789
H	3.7406979	-3.0235912	0.6537393
C	1.2948624	-2.7184194	-2.4174087
H	0.5211125	-2.4672816	-3.1507326
H	1.1665435	-3.7724565	-2.1509779
H	2.2660865	-2.5791872	-2.9032055
C	1.1975277	-1.8543368	-1.1905706
Br	4.6540954	1.5853391	0.3953396
H	3.6450722	0.8859865	-0.3778932
