19
-0.00285379 (energy)
C	1.7434785	0.3086532	-0.9015340
H	2.3852462	0.0192491	-0.0724256
C	2.3314497	0.7206624	-2.0963544
H	3.4135969	0.7494782	-2.1893920
C	1.5281806	1.0926767	-3.1677022
H	1.9788553	1.4135749	-4.1025981
C	0.1386436	1.0515293	-3.0413400
H	-0.4727775	1.3436290	-3.8909347
C	-0.4692255	0.6435697	-1.8469616
N	-1.8523392	0.6026432	-1.7742681
H	-2.3206244	0.3357071	-0.9213485
H	-2.4141374	0.9013864	-2.5585860
C	-0.2453366	-0.1876577	0.5426199
H	0.5325015	-0.4416391	1.2706201
H	-0.8608354	-1.0805530	0.3931387
H	-0.8563002	0.6094003	0.9786046
C	0.3448286	0.2643189	-0.7645399
Br	5.0354690	-0.4358886	1.2537013
H	4.4433828	-1.2049617	2.3321591
