19
-0.00271762 (energy)
C	-0.0781575	0.0235490	-0.0209408
H	0.9306085	-0.2803939	0.2493390
C	-0.3431560	0.3789395	-1.3425047
H	0.4505569	0.3502061	-2.0839378
C	-1.6262695	0.7684099	-1.7076821
H	-1.8410368	1.0454901	-2.7358918
C	-2.6412918	0.8013143	-0.7500180
H	-3.6387937	1.1059496	-1.0552336
C	-2.3920942	0.4509780	0.5832639
N	-3.4352201	0.4826134	1.4947737
H	-3.2834822	0.2585427	2.4667746
H	-4.3532169	0.7927482	1.2099626
C	-0.7622580	-0.3387863	2.3640142
H	0.2919298	-0.6165249	2.4692395
H	-1.3624008	-1.2019660	2.6692922
H	-0.9515217	0.4977918	3.0444381
C	-1.0938588	0.0539686	0.9508514
Br	3.9065575	-0.0623192	-0.0486801
H	3.8251360	0.4470686	1.3074192
