19
-0.00263192 (energy)
C	-0.7517642	1.7977082	-0.3883855
H	-1.0259828	2.0601778	0.6309061
C	-1.0060923	2.7106812	-1.4105670
H	-1.4710048	3.6662725	-1.1842252
C	-0.6613358	2.3942408	-2.7191656
H	-0.8550165	3.1010144	-3.5210836
C	-0.0628537	1.1653276	-3.0021235
H	0.2019706	0.9370136	-4.0310599
C	0.1967512	0.2344505	-1.9879496
N	0.8080374	-0.9653718	-2.3146273
H	0.9874074	-1.6661129	-1.6112027
H	1.0265726	-1.1820367	-3.2765617
C	0.1065948	-0.3959780	0.4708299
H	-0.2269244	0.0171837	1.4287367
H	1.1777860	-0.6046528	0.5571403
H	-0.4370153	-1.3325078	0.3093969
C	-0.1497504	0.5572281	-0.6635994
Br	4.1626989	-0.3143896	0.5521916
H	4.1783181	0.8503613	1.4171900
