19
-0.00262931 (energy)
C	-0.3877943	-0.5150848	1.2853432
H	0.3978617	-0.9979562	1.8620764
C	-0.0783852	0.0061117	0.0300831
H	0.9333197	-0.0727707	-0.3581946
C	-1.0690843	0.6252365	-0.7226597
H	-0.8361571	1.0326491	-1.7023912
C	-2.3669843	0.7214006	-0.2179999
H	-3.1286677	1.2066455	-0.8224377
C	-2.6948743	0.2064799	1.0428809
N	-4.0006698	0.3103431	1.4946255
H	-4.2637746	-0.0295811	2.4074482
H	-4.6969543	0.7865673	0.9392719
C	-1.9801445	-1.0000155	3.1605908
H	-1.0859267	-1.4479175	3.6070003
H	-2.7397797	-1.7848226	3.0865796
H	-2.3291837	-0.2155125	3.8398457
C	-1.6920761	-0.4226526	1.8023150
Br	3.9235370	0.0027795	-0.2002414
H	3.8939861	-0.1255777	-1.6451504
