19
-0.00238765 (energy)
C	-1.3002550	-1.6650479	-1.3010947
H	-1.2929387	-2.5209186	-1.9722677
C	-0.0843721	-1.1276180	-0.8817436
H	0.8505123	-1.5626107	-1.2242366
C	-0.0730991	-0.0329592	-0.0255795
H	0.8703790	0.3924390	0.3045706
C	-1.2781437	0.5215865	0.4089551
H	-1.2490019	1.3789513	1.0760725
C	-2.5091555	-0.0078174	0.0005228
N	-3.6792800	0.5869001	0.4444625
H	-4.5814657	0.2155348	0.1872338
H	-3.6446973	1.3663351	1.0857926
C	-3.8065411	-1.7256637	-1.3474237
H	-3.6261985	-2.5760794	-2.0136014
H	-4.3931516	-0.9887430	-1.9053497
H	-4.3915947	-2.0918436	-0.4975501
C	-2.5191764	-1.1136727	-0.8684626
Br	3.8460358	0.0962128	0.0774053
H	3.8736817	0.5534250	1.4541055
