19
-0.00231952 (energy)
C	-0.0098878	0.0834551	0.0062569
H	0.1177327	-0.9936858	-0.0745003
C	0.9418847	0.9198561	-0.5747938
H	1.7941241	0.4946381	-1.0976769
C	0.7953398	2.2988640	-0.4837799
H	1.5320706	2.9573185	-0.9351989
C	-0.3030242	2.8379275	0.1881433
H	-0.4017940	3.9185809	0.2464692
C	-1.2671575	2.0124578	0.7810364
N	-2.3492167	2.5932618	1.4227352
H	-3.0482518	2.0269604	1.8795398
H	-2.4202714	3.5980145	1.4965075
C	-2.1214061	-0.3234184	1.2959217
H	-1.8479198	-1.3703816	1.1268170
H	-3.1098883	-0.1654323	0.8527641
H	-2.1764372	-0.1685144	2.3783435
C	-1.1193437	0.6170468	0.6854786
Br	4.1961818	-1.4545202	-2.0047124
H	4.4555521	-0.8333094	-0.7194362
