19
-0.00209611 (energy)
C	0.0877537	1.9452858	-0.3948548
H	-0.8113529	2.0072667	-1.0037941
C	0.8310060	3.1031832	-0.1714558
H	0.5105741	4.0477575	-0.6023056
C	1.9818941	3.0445447	0.6053583
H	2.5657345	3.9428216	0.7851992
C	2.3864803	1.8277862	1.1569763
H	3.2876578	1.8023976	1.7637742
C	1.6537626	0.6537052	0.9398726
N	2.0850695	-0.5273859	1.5220762
H	1.5927879	-1.3941845	1.3660732
H	2.9381777	-0.5488571	2.0622285
C	-0.3458233	-0.5079688	-0.1105249
H	-1.2129109	-0.2768494	-0.7384308
H	-0.7215343	-0.9242154	0.8297014
H	0.2475462	-1.2642688	-0.6345321
C	0.4874982	0.7150209	0.1561509
Br	4.5292548	-3.4745369	0.9962293
H	4.6227566	-2.2378885	0.2431895
