19
-0.00184353 (energy)
C	-0.0131983	-2.7824598	0.6620736
H	-0.0048643	-3.8428228	0.9041521
C	1.0221338	-2.2600730	-0.1113972
H	1.8203656	-2.9082704	-0.4623887
C	1.0281514	-0.9079744	-0.4326683
H	1.8307655	-0.4936258	-1.0361910
C	-0.0015986	-0.0816649	0.0204333
H	0.0190346	0.9723705	-0.2432956
C	-1.0479676	-0.5888720	0.8016685
N	-2.0570594	0.2664551	1.2141148
H	-2.8120727	-0.0627815	1.7968463
H	-2.0171407	1.2500081	0.9881740
C	-2.1511537	-2.5652602	1.9540726
H	-1.9948975	-3.6384421	2.1070027
H	-3.1181953	-2.4407985	1.4562922
H	-2.1842947	-2.0936610	2.9415727
C	-1.0545427	-1.9580221	1.1234398
Br	3.3317354	2.0966860	-0.9118702
H	4.5233359	1.3233054	-0.6167744
