19
-0.00179828 (energy)
C	-0.7903344	-0.9371287	-1.5636205
H	-1.2329328	-1.7696610	-1.0213679
C	-0.9415863	-0.8785794	-2.9480888
H	-1.4937638	-1.6558788	-3.4690826
C	-0.3847974	0.1782502	-3.6583840
H	-0.4995191	0.2316923	-4.7373171
C	0.3218568	1.1740841	-2.9820495
H	0.7476804	1.9938913	-3.5543778
C	0.4867607	1.1293431	-1.5916250
N	1.1816368	2.1495336	-0.9620844
H	1.3376196	2.1345851	0.0346421
H	1.5977925	2.8938152	-1.5032669
C	0.0569804	-0.0427776	0.6202944
H	-0.4427287	-0.9357741	1.0106417
H	-0.3974516	0.8273614	1.1048509
H	1.1132996	-0.1078792	0.9006730
C	-0.0799185	0.0609429	-0.8736083
Br	4.0917550	1.8971981	1.1908887
H	4.8764473	0.6838496	1.3218624
