19
-0.0016134 (energy)
C	0.5277713	-1.2906454	-0.3514194
H	0.2045915	-1.6931303	-1.3088128
C	0.0527855	-0.0429743	0.0495328
H	-0.6285078	0.5116875	-0.5897783
C	0.4529018	0.4873343	1.2702300
H	0.0860108	1.4584265	1.5903625
C	1.3271059	-0.2317640	2.0870153
H	1.6264909	0.1981734	3.0391139
C	1.8171397	-1.4852833	1.6983872
N	2.6694265	-2.1694642	2.5501302
H	3.0578431	-3.0634325	2.2894175
H	2.9647903	-1.7518857	3.4209962
C	1.8948330	-3.3645017	-0.0085595
H	1.4783850	-3.6227455	-0.9880513
H	1.5927117	-4.1472553	0.6946225
H	2.9853609	-3.3604244	-0.1054765
C	1.4089460	-2.0222461	0.4642069
Br	5.1694382	-1.3098206	-0.0059789
H	4.7900434	0.0125377	-0.4669983
