19
-0.00403914 (energy)
C	-0.0832928	0.0113920	-0.0058485
H	0.9917533	-0.1356423	0.0696375
C	-0.9343919	-0.9780189	0.4837982
H	-0.5224560	-1.8781257	0.9317329
C	-2.3109938	-0.8076463	0.3979941
H	-2.9808360	-1.5735264	0.7785895
C	-2.8329538	0.3521289	-0.1772908
H	-3.9119931	0.4684865	-0.2330067
C	-1.9925635	1.3550278	-0.6777041
N	-2.5566534	2.4963872	-1.2245715
H	-1.9793450	3.2262916	-1.6144080
H	-3.5600052	2.5856045	-1.2976783
C	0.3563200	2.2236582	-1.1012523
H	1.3989319	1.9238887	-0.9508477
H	0.2064578	3.1709071	-0.5733260
H	0.2095301	2.3759814	-2.1754548
C	-0.5996057	1.1827951	-0.5873898
Br	3.9900605	-0.1805586	0.0853154
H	4.0005051	-0.2429143	-1.3642064
