19
-0.00379041 (energy)
C	0.5998330	-0.2116522	1.2896540
H	0.0697922	-0.8878517	1.9566265
C	0.0717499	0.0370308	0.0238173
H	-0.8543140	-0.4409190	-0.2835890
C	0.7335411	0.8994145	-0.8420629
H	0.3276188	1.0993938	-1.8296606
C	1.9219527	1.5111003	-0.4395807
H	2.4235381	2.1843766	-1.1295665
C	2.4688840	1.2699023	0.8273704
N	3.6417056	1.9131651	1.1888468
H	4.0733054	1.7430187	2.0848321
H	4.1166638	2.5162921	0.5325910
C	2.3283706	0.1024940	3.0787209
H	1.6803426	-0.5945699	3.6206475
H	2.3896504	1.0222449	3.6692702
H	3.3203715	-0.3557342	3.0107381
C	1.7964850	0.3994078	1.7038811
Br	5.1624513	-1.3106839	-1.5673344
H	4.0602486	-0.4120481	-1.2797346
