19
-0.0036478 (energy)
C	-2.3792040	-1.5827158	0.1224623
H	-3.2877906	-2.1798306	0.1535379
C	-2.0317333	-0.9466172	-1.0682099
H	-2.6634906	-1.0509213	-1.9460097
C	-0.8754842	-0.1778337	-1.1272166
H	-0.5986639	0.3221480	-2.0510687
C	-0.0696323	-0.0470671	0.0050273
H	0.8290994	0.5604199	-0.0598591
C	-0.4015776	-0.6821475	1.2087551
N	0.4200988	-0.5092976	2.3109954
H	0.2213221	-0.9716953	3.1854632
H	1.2678995	0.0344019	2.2358694
C	-1.9882705	-2.1604775	2.5309168
H	-2.9217590	-2.7170534	2.3954712
H	-2.1510722	-1.4346298	3.3340893
H	-1.2190703	-2.8774621	2.8357520
C	-1.5736590	-1.4573016	1.2680289
Br	3.8017483	0.1838517	-0.1436077
H	3.6477593	-1.1924670	-0.5762102
