19
-0.00345967 (energy)
C	-1.3080222	0.7488356	-1.9708420
H	-2.2664076	1.0663499	-2.3754695
C	-1.2212977	0.4289571	-0.6168796
H	-2.1012067	0.4985273	0.0167204
C	-0.0058366	0.0195523	-0.0816562
H	0.0694955	-0.2328061	0.9722669
C	1.1199623	-0.0690328	-0.9021457
H	2.0609077	-0.3936356	-0.4659989
C	1.0518949	0.2519671	-2.2640566
N	2.1919163	0.1324809	-3.0425403
H	2.1815314	0.3780631	-4.0211104
H	3.0690422	-0.1436142	-2.6248791
C	-0.3201924	1.0170597	-4.2598459
H	-1.3447797	1.3160391	-4.5055188
H	-0.0692363	0.1552895	-4.8865983
H	0.3365635	1.8562058	-4.5111744
C	-0.1795022	0.6631174	-2.8051378
Br	4.5699561	-0.2283060	1.1679102
H	3.5934295	-0.3524580	2.2337868
