19
-0.0033965 (energy)
C	1.9647361	-0.5589743	-2.4458731
H	2.4321350	-1.3482272	-3.0303895
C	2.2272482	0.7694913	-2.7765149
H	2.8890901	1.0038987	-3.6056997
C	1.6380600	1.7920194	-2.0425426
H	1.8365811	2.8298095	-2.2949211
C	0.7875550	1.4832165	-0.9796430
H	0.3341411	2.2964086	-0.4191934
C	0.5154142	0.1539469	-0.6311360
N	-0.3487042	-0.1036753	0.4209538
H	-0.5469564	-1.0493487	0.7114977
H	-0.7449745	0.6568302	0.9544521
C	0.8547326	-2.3269441	-1.0568210
H	1.3983552	-2.9926023	-1.7357147
H	-0.2113633	-2.5555748	-1.1548659
H	1.1857570	-2.5541834	-0.0382702
C	1.1098251	-0.8799369	-1.3767310
Br	4.3641899	-1.3757429	0.4694020
H	3.5170454	-0.2133506	0.2788738
