11
-0.00338686 (energy)
C	0.6581003	-1.1969490	0.2240263
H	0.7125984	-1.4771096	1.2693110
C	1.1704586	-1.9227502	-0.7702614
H	1.6803290	-2.8571263	-0.5568432
H	1.1007121	-1.6171448	-1.8077215
O	0.0014717	-0.0125125	0.0562704
H	-0.0233574	0.1985823	-0.8930522
C	2.9953282	1.0294106	-0.5363292
H	3.8821410	0.5297992	-0.9578537
H	2.7982013	0.8279115	0.5287036
O	2.2766804	1.7599590	-1.2068389
