11
-0.00296934 (energy)
C	-1.3162004	0.4026308	0.1465456
H	-1.4251959	1.4156699	0.5152621
C	-2.3409172	-0.3990663	-0.1452484
H	-3.3606578	-0.0490979	-0.0178703
H	-2.2014198	-1.4090174	-0.5128377
O	-0.0029452	0.0541157	0.0196954
H	0.0467428	-0.8588547	-0.3125803
C	3.3915527	-0.6943651	-0.3456879
H	2.7061050	-0.5588559	0.5060927
H	3.9206709	0.2129036	-0.6783338
O	3.5544576	-1.7809135	-0.8866253
