11
-0.00296276 (energy)
C	-0.2285557	1.3367813	0.2770356
H	-0.2474821	1.9687671	-0.6029166
C	-0.4064960	1.7841559	1.5204582
H	-0.5835719	2.8400749	1.7000498
H	-0.3822700	1.1278001	2.3825445
O	-0.0005124	0.0313059	-0.0484228
H	0.0081328	-0.4968471	0.7685048
C	3.0470900	-0.5104098	-1.3637705
H	3.2442079	0.0198113	-2.3091495
H	2.1602714	-1.1640960	-1.3619988
O	3.7657367	-0.3817739	-0.3805419
