11
-0.00292602 (energy)
C	-1.0082680	0.2155947	-0.9235179
H	-1.0917630	-0.5652079	-1.6701477
C	-1.7932466	1.2925325	-0.8796993
H	-2.5744131	1.4285680	-1.6212161
H	-1.6863837	2.0582157	-0.1201652
O	-0.0022568	-0.0428988	-0.0384667
H	0.0358175	0.6808352	0.6104943
C	3.6789949	0.5331459	0.7091506
H	4.3892297	-0.2927052	0.5440207
H	2.7769659	0.5172178	0.0768170
O	3.8788253	1.4102696	1.5400902
