11
-0.00271546 (energy)
C	1.0082680	-0.9469252	0.0519521
H	1.0917631	-1.5466270	-0.8466392
C	1.7932467	-1.0907805	1.1201378
H	2.5744132	-1.8446542	1.1253436
H	1.6863838	-0.4757448	2.0060803
O	0.0022568	-0.0304330	-0.0489268
H	-0.0358176	0.4829937	0.7765031
C	4.5111195	-0.9720728	-1.5260347
H	4.4901895	-0.6003031	-0.4891738
H	5.2217500	-0.4649222	-2.1980156
O	3.7924728	-1.8878917	-1.9062473
