11
-0.00265499 (energy)
C	-1.2368238	0.5565970	-0.2764731
H	-1.3392462	1.5823861	0.0572129
C	-2.1997426	-0.1252310	-0.8976047
H	-3.1579853	0.3440243	-1.0979649
H	-2.0686588	-1.1515002	-1.2203605
O	-0.0027673	0.0544602	0.0187489
H	0.0439184	-0.8643223	-0.2975583
C	3.8062702	-0.8635700	-0.2222693
H	4.6119684	-0.1224680	-0.0983759
H	2.7964689	-0.5170341	0.0497050
O	4.0189253	-1.9968707	-0.6347570
