11
-0.00257836 (energy)
C	-0.0770537	0.0307452	0.0128584
H	0.9174655	-0.3660781	-0.1531023
C	-0.5387976	0.4114968	1.2043815
H	0.0923312	0.3333835	2.0842386
H	-1.5393137	0.8052556	1.3404119
O	-0.7927438	0.0906551	-1.1474828
H	-1.6748111	0.4511761	-0.9515928
C	3.7848805	0.6344418	-2.2012911
H	4.4496096	1.4900158	-2.4009403
H	3.4139694	0.1032970	-3.0923949
O	3.4787205	0.2963790	-1.0647531
