11
-0.00236089 (energy)
C	0.0770537	-0.0180019	0.0280452
H	-0.9174658	0.2143451	-0.3339298
C	0.5387977	-1.2575399	0.1961063
H	-0.0923311	-2.1104658	-0.0336057
H	1.5393120	-1.4598792	0.5602666
O	0.7927445	1.1143078	0.2885342
H	1.6748000	0.8587900	0.6095946
C	2.2875977	-1.2438181	-2.3658008
H	2.0179856	-2.3109643	-2.4131261
H	1.7111721	-0.5786334	-3.0283856
O	3.1691487	-0.8249661	-1.6260916
