11
-0.00195906 (energy)
C	1.2576999	-0.6444540	-0.0568091
H	1.5225949	-1.5078931	0.5418423
C	0.0724759	-0.0358496	-0.0043538
H	-0.6984232	-0.4001726	0.6676262
H	-0.1645355	0.8270281	-0.6157867
O	2.2868638	-0.2616222	-0.8670279
H	2.0055057	0.5132462	-1.3835621
C	4.8438479	-2.0821415	1.0489036
H	4.0953598	-1.5266299	1.6361885
H	5.1421809	-1.6151413	0.0967145
O	5.3129123	-3.1475791	1.4291143
