11
-0.00158543 (energy)
C	0.0409994	0.0594366	0.0428278
H	-0.4881729	-0.7077013	-0.5099436
C	0.2866881	1.2825132	-0.4279451
H	-0.0491285	1.5620139	-1.4217662
H	0.8190535	2.0302147	0.1483467
O	0.4218095	-0.3839903	1.2759334
H	0.8911596	0.3342721	1.7344099
C	3.9163145	0.0229647	0.0273667
H	3.3286642	0.6409690	-0.6701067
H	3.3286668	-0.5950512	0.7248497
O	5.1409528	0.0229637	0.0273673
