11
-0.00125776 (energy)
C	-1.2576998	-0.6250186	-0.1670330
H	-1.5225948	-1.2316352	-1.0248949
C	-0.0724759	-0.0351767	-0.0081701
H	0.6984232	-0.1476976	-0.7642305
H	0.1645355	0.5665408	0.8615104
O	-2.2868638	-0.5423855	0.7252597
H	-2.0055057	0.0090876	1.4756637
C	4.5472568	0.5515808	-0.3184543
H	5.1463414	1.0749839	0.4436994
H	5.0525910	0.3762913	-1.2816089
O	3.3964733	0.1888447	-0.1090296
