11
-0.000994679 (energy)
C	-0.2324135	0.4970391	-1.3035694
H	-0.2813647	-0.1259801	-2.1887423
C	-0.0133928	0.0299296	-0.0740389
H	0.1290635	-1.0340642	0.0878164
H	0.0304024	0.6776971	0.7937525
O	-0.4225943	1.8139431	-1.6065348
H	-0.3706195	2.3334637	-0.7856889
C	3.5996357	-1.8609932	-0.9046020
H	3.6864995	-2.8053273	-1.4653329
H	2.6667289	-1.2974352	-1.0653599
O	4.4811864	-1.4642196	-0.1528188
