11
-0.00093433 (energy)
C	0.6692081	1.0621073	-0.6514949
H	0.8101554	1.1208499	-1.7242313
C	0.0385638	0.0614964	-0.0358878
H	-0.3716231	-0.7616432	-0.6127428
H	-0.0875492	0.0294155	1.0400532
O	1.2168155	2.1375405	-0.0144999
H	1.0670962	2.0429225	0.9420682
C	2.5781396	-2.1225703	0.3742676
H	1.9904893	-1.8275428	1.2582116
H	1.9904921	-2.4176004	-0.5096914
O	3.8027779	-2.1225704	0.3742666
