11
-0.0043084 (energy)
C	0.0770537	-0.0244932	0.0225984
H	-0.9174655	0.2916367	-0.2690753
C	0.5387976	0.0252424	1.2724886
H	-0.0923312	0.3995739	2.0725675
H	1.5393137	-0.2982446	1.5349888
O	0.7927438	-0.4776503	-1.0472751
H	1.6748112	-0.7494307	-0.7398933
C	5.1370461	-0.3315118	1.7159786
H	6.1636935	-0.6128940	1.4321644
H	4.9564235	-0.2221917	2.7972651
O	4.2554942	-0.1522204	0.8850396
