11
-0.00429562 (energy)
C	-0.2285557	0.5049565	-1.2683659
H	-0.2474821	-0.2518841	-2.0435525
C	-0.4064960	1.8071744	-1.4930258
H	-0.5835719	2.1673961	-2.5017172
H	-0.3822700	2.5421887	-0.6969417
O	-0.0005124	-0.0422509	-0.0392388
H	0.0081328	0.6705528	0.6227484
C	3.3580401	0.0457157	1.1716520
H	3.1774285	-0.7330557	0.4136112
H	4.3846946	0.4437111	1.2082039
O	2.4764894	0.4424893	1.9234353
