11
-0.0038895 (energy)
C	-1.0082680	-0.1132689	0.9415607
H	-1.0917637	-1.1023460	1.3761123
C	-1.7932465	0.9137085	1.2687191
H	-2.5744132	0.7879264	2.0120436
H	-1.6863870	1.8929900	0.8168657
O	-0.0022555	-0.0534676	0.0214761
H	0.0357967	0.8485687	-0.3408410
C	3.5884567	0.8309760	-0.4450058
H	2.7844742	0.1869497	-0.0543992
H	4.5842334	0.3634890	-0.5053421
O	3.3886263	1.9891526	-0.7891477
