11
-0.0036126 (energy)
C	-1.2368238	-0.6040916	0.1459830
H	-1.3392459	-1.1754031	1.0609655
C	-2.1997426	-0.4810367	-0.7681019
H	-3.1579852	-0.9692963	-0.6199553
H	-2.0686570	0.0976633	-1.6750229
O	-0.0027680	-0.0296657	0.0493698
H	0.0439294	0.4708160	-0.7835338
C	2.9647892	-0.1560169	-0.6670835
H	3.3674270	0.8494994	-0.4657106
H	3.0123118	-0.8640318	0.1756575
O	2.4957252	-0.4660223	-1.7550240
